GDG1223 anchored core
Actelion Java MolfileCreator 1.0

  5  1  0  0  0  0  0  0  0  0999 V2000
   -0.9703   -0.6910    0.0000 N   0  0  0  0  0  0  0  0  0  0  0  0
   -1.7770    2.1176    0.0000 N   0  0  0  0  0  0  0  0  0  0  0  0
    0.5834   -0.1528    0.0000 B   0  0  0  0  0  0  0  0  0  0  0  0
    1.8263   -1.2292    0.0000 N   0  0  0  0  0  0  0  0  0  0  0  0
    0.6000    1.3500    0.4000 C   0  0  0  0  0  0  0  0  0  0  0  0
  3  5  1  0  0  0  0
M  END

$$$$
