GDG1476.sdf
  ChemDraw07052618472D

109135  0  0  1  0  0  0  0  0999 V2000
   -0.7157    0.6664    0.0000 C   0  0  0  0  0  0  0  0  0  0  0  0
   -0.7157   -0.1557    0.0000 C   0  0  0  0  0  0  0  0  0  0  0  0
   -0.0037   -0.5668    0.0000 C   0  0  0  0  0  0  0  0  0  0  0  0
    0.7083   -0.1557    0.0000 C   0  0  0  0  0  0  0  0  0  0  0  0
    0.7083    0.6664    0.0000 C   0  0  0  0  0  0  0  0  0  0  0  0
   -0.0037    1.0775    0.0000 C   0  0  0  0  0  0  0  0  0  0  0  0
   -1.4277    1.0775    0.0000 N   0  0  0  0  0  0  0  0  0  0  0  0
   -2.1397    0.6664    0.0000 C   0  0  0  0  0  0  0  0  0  0  0  0
   -1.4277    1.8997    0.0000 C   0  0  0  0  0  0  0  0  0  0  0  0
   -2.1397   -0.1557    0.0000 C   0  0  0  0  0  0  0  0  0  0  0  0
   -0.7157    2.3107    0.0000 C   0  0  0  0  0  0  0  0  0  0  0  0
    1.4203    1.0775    0.0000 N   0  0  0  0  0  0  0  0  0  0  0  0
    1.4203    1.8996    0.0000 C   0  0  0  0  0  0  0  0  0  0  0  0
    2.1323    0.6664    0.0000 C   0  0  0  0  0  0  0  0  0  0  0  0
    2.1323   -0.1557    0.0000 C   0  0  0  0  0  0  0  0  0  0  0  0
    2.8442   -0.5668    0.0000 C   0  0  0  0  0  0  0  0  0  0  0  0
    3.5562   -0.1557    0.0000 C   0  0  0  0  0  0  0  0  0  0  0  0
    3.5562    0.6664    0.0000 C   0  0  0  0  0  0  0  0  0  0  0  0
    2.8442    1.0775    0.0000 C   0  0  0  0  0  0  0  0  0  0  0  0
    2.1323    2.3107    0.0000 C   0  0  0  0  0  0  0  0  0  0  0  0
    2.1323    3.1329    0.0000 C   0  0  0  0  0  0  0  0  0  0  0  0
    1.4203    3.5439    0.0000 C   0  0  0  0  0  0  0  0  0  0  0  0
    0.7083    3.1329    0.0000 C   0  0  0  0  0  0  0  0  0  0  0  0
    0.7083    2.3107    0.0000 C   0  0  0  0  0  0  0  0  0  0  0  0
   -0.0037    1.8997    0.0000 B   0  0  0  0  0  0  0  0  0  0  0  0
   -2.8517    1.0775    0.0000 C   0  0  0  0  0  0  0  0  0  0  0  0
   -3.5637    0.6664    0.0000 C   0  0  0  0  0  0  0  0  0  0  0  0
   -3.5637   -0.1557    0.0000 C   0  0  0  0  0  0  0  0  0  0  0  0
   -2.8517   -0.5668    0.0000 C   0  0  0  0  0  0  0  0  0  0  0  0
   -0.0037   -1.3889    0.0000 F   0  0  0  0  0  0  0  0  0  0  0  0
   -0.7157    3.1329    0.0000 C   0  0  0  0  0  0  0  0  0  0  0  0
   -1.4277    3.5439    0.0000 C   0  0  0  0  0  0  0  0  0  0  0  0
   -2.1397    3.1329    0.0000 C   0  0  0  0  0  0  0  0  0  0  0  0
   -2.1397    2.3107    0.0000 C   0  0  0  0  0  0  0  0  0  0  0  0
   -3.2612   -4.5933    0.0000 C   0  0  0  0  0  0  0  0  0  0  0  0
   -2.8804   -5.3220    0.0000 C   0  0  0  0  0  0  0  0  0  0  0  0
   -2.0697   -5.1850    0.0000 C   0  0  0  0  0  0  0  0  0  0  0  0
   -1.9495   -4.3717    0.0000 C   0  0  0  0  0  0  0  0  0  0  0  0
   -2.6858   -4.0060    0.0000 C   0  0  0  0  0  0  0  0  0  0  0  0
   -4.0826   -4.5588    0.0000 C   0  0  0  0  0  0  0  0  0  0  0  0
   -4.5232   -5.2529    0.0000 C   0  0  0  0  0  0  0  0  0  0  0  0
   -4.1424   -5.9815    0.0000 C   0  0  0  0  0  0  0  0  0  0  0  0
   -3.3210   -6.0161    0.0000 C   0  0  0  0  0  0  0  0  0  0  0  0
   -1.4255   -5.6957    0.0000 C   0  0  0  0  0  0  0  0  0  0  0  0
   -0.6611   -5.3932    0.0000 C   0  0  0  0  0  0  0  0  0  0  0  0
   -0.5408   -4.5799    0.0000 C   0  0  0  0  0  0  0  0  0  0  0  0
   -1.1851   -4.0691    0.0000 C   0  0  0  0  0  0  0  0  0  0  0  0
    1.5587   -4.2867    0.0000 C   0  0  0  0  0  0  0  0  0  0  0  0
    1.6994   -5.0967    0.0000 C   0  0  0  0  0  0  0  0  0  0  0  0
    2.5132   -5.2132    0.0000 C   0  0  0  0  0  0  0  0  0  0  0  0
    2.8755   -4.4752    0.0000 C   0  0  0  0  0  0  0  0  0  0  0  0
    2.2856   -3.9025    0.0000 C   0  0  0  0  0  0  0  0  0  0  0  0
    0.7869   -4.0035    0.0000 C   0  0  0  0  0  0  0  0  0  0  0  0
    0.1557   -4.5304    0.0000 C   0  0  0  0  0  0  0  0  0  0  0  0
    0.2964   -5.3404    0.0000 C   0  0  0  0  0  0  0  0  0  0  0  0
    1.0683   -5.6235    0.0000 C   0  0  0  0  0  0  0  0  0  0  0  0
    2.9712   -5.8959    0.0000 C   0  0  0  0  0  0  0  0  0  0  0  0
    3.7915   -5.8407    0.0000 C   0  0  0  0  0  0  0  0  0  0  0  0
    4.1538   -5.1026    0.0000 C   0  0  0  0  0  0  0  0  0  0  0  0
    3.6958   -4.4199    0.0000 C   0  0  0  0  0  0  0  0  0  0  0  0
    1.4203    4.3661    0.0000 C   0  0  0  0  0  0  0  0  0  0  0  0
    2.1347    4.7786    0.0000 C   0  0  0  0  0  0  0  0  0  0  0  0
    2.1347    5.6036    0.0000 C   0  0  0  0  0  0  0  0  0  0  0  0
    1.4203    6.0161    0.0000 C   0  0  0  0  0  0  0  0  0  0  0  0
    0.7058    5.6036    0.0000 C   0  0  0  0  0  0  0  0  0  0  0  0
    0.7058    4.7786    0.0000 C   0  0  0  0  0  0  0  0  0  0  0  0
   -1.4277    4.3661    0.0000 C   0  0  0  0  0  0  0  0  0  0  0  0
   -0.7157    4.7771    0.0000 C   0  0  0  0  0  0  0  0  0  0  0  0
   -0.7157    5.5993    0.0000 C   0  0  0  0  0  0  0  0  0  0  0  0
   -1.4277    6.0103    0.0000 C   0  0  0  0  0  0  0  0  0  0  0  0
   -2.1397    5.5993    0.0000 C   0  0  0  0  0  0  0  0  0  0  0  0
   -2.1397    4.7771    0.0000 C   0  0  0  0  0  0  0  0  0  0  0  0
   -4.2757   -0.5668    0.0000 C   0  0  0  0  0  0  0  0  0  0  0  0
   -4.9877   -0.1557    0.0000 C   0  0  0  0  0  0  0  0  0  0  0  0
   -5.6996   -0.5668    0.0000 C   0  0  0  0  0  0  0  0  0  0  0  0
   -5.6996   -1.3889    0.0000 C   0  0  0  0  0  0  0  0  0  0  0  0
   -4.9877   -1.8000    0.0000 C   0  0  0  0  0  0  0  0  0  0  0  0
   -4.2757   -1.3889    0.0000 C   0  0  0  0  0  0  0  0  0  0  0  0
    4.2707   -0.5682    0.0000 C   0  0  0  0  0  0  0  0  0  0  0  0
    4.2707   -1.3932    0.0000 C   0  0  0  0  0  0  0  0  0  0  0  0
    4.9852   -1.8057    0.0000 C   0  0  0  0  0  0  0  0  0  0  0  0
    5.6996   -1.3932    0.0000 C   0  0  0  0  0  0  0  0  0  0  0  0
    5.6996   -0.5682    0.0000 C   0  0  0  0  0  0  0  0  0  0  0  0
    4.9852   -0.1557    0.0000 C   0  0  0  0  0  0  0  0  0  0  0  0
   -4.4633   -3.8301    0.0000 C   0  0  0  0  0  0  0  0  0  0  0  0
    4.0581   -3.6819    0.0000 C   0  0  0  0  0  0  0  0  0  0  0  0
   -3.9923   -3.1528    0.0000 C   0  0  0  0  0  0  0  0  0  0  0  0
   -4.3434   -2.4063    0.0000 C   0  0  0  0  0  0  0  0  0  0  0  0
   -5.1654   -2.3370    0.0000 C   0  0  0  0  0  0  0  0  0  0  0  0
   -5.6365   -3.0143    0.0000 C   0  0  0  0  0  0  0  0  0  0  0  0
   -5.2854   -3.7609    0.0000 C   0  0  0  0  0  0  0  0  0  0  0  0
    4.8812   -3.6264    0.0000 C   0  0  0  0  0  0  0  0  0  0  0  0
    5.2448   -2.8858    0.0000 C   0  0  0  0  0  0  0  0  0  0  0  0
    4.7852   -2.2007    0.0000 C   0  0  0  0  0  0  0  0  0  0  0  0
    3.9620   -2.2562    0.0000 C   0  0  0  0  0  0  0  0  0  0  0  0
    3.5985   -2.9968    0.0000 C   0  0  0  0  0  0  0  0  0  0  0  0
    2.6471    3.8912    0.0000 C   0  0  0  0  0  0  0  0  0  0  0  0
    3.1292    3.2217    0.0000 C   0  0  0  0  0  0  0  0  0  0  0  0
    3.9148    3.4733    0.0000 C   0  0  0  0  0  0  0  0  0  0  0  0
    3.9148    4.2983    0.0000 C   0  0  0  0  0  0  0  0  0  0  0  0
    3.1292    4.5565    0.0000 C   0  0  0  0  0  0  0  0  0  0  0  0
    4.5314    4.8496    0.0000 C   0  0  0  0  0  0  0  0  0  0  0  0
    4.3622    5.6591    0.0000 C   0  0  0  0  0  0  0  0  0  0  0  0
    3.5765    5.9174    0.0000 C   0  0  0  0  0  0  0  0  0  0  0  0
    2.9600    5.3661    0.0000 C   0  0  0  0  0  0  0  0  0  0  0  0
    2.9542    2.4154    0.0000 C   0  0  0  0  0  0  0  0  0  0  0  0
    3.5649    1.8608    0.0000 C   0  0  0  0  0  0  0  0  0  0  0  0
    4.3506    2.1124    0.0000 C   0  0  0  0  0  0  0  0  0  0  0  0
    4.5256    2.9186    0.0000 C   0  0  0  0  0  0  0  0  0  0  0  0
  1  2  2  0        0
  2  3  1  0        0
  3  4  2  0        0
  4  5  1  0        0
  5  6  2  0        0
  6  1  1  0        0
  1  7  1  0        0
  7  8  1  0        0
  7  9  1  0        0
 10  8  2  0        0
  5 12  1  0        0
 12 13  1  0        0
 12 14  1  0        0
 14 15  2  0        0
 15 16  1  0        0
 16 17  2  0        0
 17 18  1  0        0
 18 19  2  0        0
 19 14  1  0        0
 13 20  2  0        0
 20 21  1  0        0
 21 22  2  0        0
 22 23  1  0        0
 23 24  2  0        0
 24 13  1  0        0
  6 25  1  0        0
 25 11  1  0        0
 25 24  1  0        0
  8 26  1  0        0
 26 27  2  0        0
 27 28  1  0        0
 28 29  2  0        0
 29 10  1  0        0
  3 30  1  0        0
  9 11  2  0        0
 11 31  1  0        0
 31 32  2  0        0
 32 33  1  0        0
 33 34  2  0        0
 34  9  1  0        0
 34 26  1  0        0
 20 19  1  0        0
 35 36  2  0        0
 36 37  1  0        0
 37 38  2  0        0
 38 39  1  0        0
 39 35  1  0        0
 35 40  1  0        0
 40 41  2  0        0
 41 42  1  0        0
 42 43  2  0        0
 43 36  1  0        0
 37 44  1  0        0
 44 45  2  0        0
 45 46  1  0        0
 46 47  2  0        0
 47 38  1  0        0
 48 49  2  0        0
 49 50  1  0        0
 50 51  2  0        0
 51 52  1  0        0
 52 48  1  0        0
 48 53  1  0        0
 53 54  2  0        0
 54 55  1  0        0
 55 56  2  0        0
 56 49  1  0        0
 50 57  1  0        0
 57 58  2  0        0
 58 59  1  0        0
 59 60  2  0        0
 60 51  1  0        0
 10 39  1  0        0
 39  2  1  0        0
  4 52  1  0        0
 52 15  1  0        0
 22 61  1  0        0
 61 62  2  0        0
 62 63  1  0        0
 63 64  2  0        0
 64 65  1  0        0
 65 66  2  0        0
 66 61  1  0        0
 32 67  1  0        0
 67 68  2  0        0
 68 69  1  0        0
 69 70  2  0        0
 70 71  1  0        0
 71 72  2  0        0
 72 67  1  0        0
 28 73  1  0        0
 73 74  2  0        0
 74 75  1  0        0
 75 76  2  0        0
 76 77  1  0        0
 77 78  2  0        0
 78 73  1  0        0
 17 79  1  0        0
 79 80  2  0        0
 80 81  1  0        0
 81 82  2  0        0
 82 83  1  0        0
 83 84  2  0        0
 84 79  1  0        0
 40 85  1  0        0
 60 86  1  0        0
 85 87  2  0        0
 87 88  1  0        0
 88 89  2  0        0
 89 90  1  0        0
 90 91  2  0        0
 91 85  1  0        0
 86 92  2  0        0
 92 93  1  0        0
 93 94  2  0        0
 94 95  1  0        0
 95 96  2  0        0
 96 86  1  0        0
 62 97  1  0        0
 97 21  1  0        0
 97 98  1  0        0
 98 99  2  0        0
 99100  1  0        0
100101  2  0        0
101 97  1  0        0
100102  1  0        0
102103  2  0        0
103104  1  0        0
104105  2  0        0
105101  1  0        0
 98106  1  0        0
106107  2  0        0
107108  1  0        0
108109  2  0        0
109 99  1  0        0
M  END
$$$$
