GDG1223.sdf
  ChemDraw07052618452D

 83100  0  0  0  0  0  0  0  0999 V2000
   -1.2810    1.4619    0.0000 C   0  0  0  0  0  0  0  0  0  0  0  0
   -1.4364    0.6546    0.0000 C   0  0  0  0  0  0  0  0  0  0  0  0
   -0.8149    0.1164    0.0000 C   0  0  0  0  0  0  0  0  0  0  0  0
   -0.0381    0.3855    0.0000 C   0  0  0  0  0  0  0  0  0  0  0  0
    0.1173    1.1928    0.0000 C   0  0  0  0  0  0  0  0  0  0  0  0
   -0.5042    1.7310    0.0000 C   0  0  0  0  0  0  0  0  0  0  0  0
   -2.0608    0.1198    0.0000 C   0  0  0  0  0  0  0  0  0  0  0  0
   -1.7917   -0.6570    0.0000 C   0  0  0  0  0  0  0  0  0  0  0  0
   -0.9703   -0.6910    0.0000 N   0  0  0  0  0  0  0  0  0  0  0  0
   -2.2823   -1.3168    0.0000 C   0  0  0  0  0  0  0  0  0  0  0  0
   -3.0989   -1.2219    0.0000 C   0  0  0  0  0  0  0  0  0  0  0  0
   -3.5894   -1.8817    0.0000 C   0  0  0  0  0  0  0  0  0  0  0  0
   -3.2633   -2.6364    0.0000 C   0  0  0  0  0  0  0  0  0  0  0  0
   -2.4466   -2.7313    0.0000 C   0  0  0  0  0  0  0  0  0  0  0  0
   -1.9561   -2.0715    0.0000 C   0  0  0  0  0  0  0  0  0  0  0  0
   -0.5201    2.5530    0.0000 C   0  0  0  0  0  0  0  0  0  0  0  0
   -1.3067    2.7919    0.0000 C   0  0  0  0  0  0  0  0  0  0  0  0
   -1.7770    2.1176    0.0000 N   0  0  0  0  0  0  0  0  0  0  0  0
   -2.8544    0.3348    0.0000 C   0  0  0  0  0  0  0  0  0  0  0  0
   -3.0650    1.1295    0.0000 C   0  0  0  0  0  0  0  0  0  0  0  0
   -3.8585    1.3445    0.0000 C   0  0  0  0  0  0  0  0  0  0  0  0
   -4.4414    0.7647    0.0000 C   0  0  0  0  0  0  0  0  0  0  0  0
   -4.2309   -0.0300    0.0000 C   0  0  0  0  0  0  0  0  0  0  0  0
   -3.4373   -0.2449    0.0000 C   0  0  0  0  0  0  0  0  0  0  0  0
    0.0802    3.1148    0.0000 C   0  0  0  0  0  0  0  0  0  0  0  0
   -0.1063    3.9155    0.0000 C   0  0  0  0  0  0  0  0  0  0  0  0
   -0.8929    4.1544    0.0000 C   0  0  0  0  0  0  0  0  0  0  0  0
   -1.4931    3.5926    0.0000 C   0  0  0  0  0  0  0  0  0  0  0  0
   -2.4478    2.5929    0.0000 C   0  0  0  0  0  0  0  0  0  0  0  0
   -2.2924    3.4002    0.0000 C   0  0  0  0  0  0  0  0  0  0  0  0
   -2.9139    3.9384    0.0000 C   0  0  0  0  0  0  0  0  0  0  0  0
   -3.6908    3.6693    0.0000 C   0  0  0  0  0  0  0  0  0  0  0  0
   -3.8461    2.8620    0.0000 C   0  0  0  0  0  0  0  0  0  0  0  0
   -3.2247    2.3238    0.0000 C   0  0  0  0  0  0  0  0  0  0  0  0
   -4.3122    4.2075    0.0000 C   0  0  0  0  0  0  0  0  0  0  0  0
    0.4940    4.4773    0.0000 C   0  0  0  0  0  0  0  0  0  0  0  0
    1.0753    5.0587    0.0000 C   0  0  0  0  0  0  0  0  0  0  0  0
    1.2806    4.2384    0.0000 C   0  0  0  0  0  0  0  0  0  0  0  0
    0.2812    5.2714    0.0000 C   0  0  0  0  0  0  0  0  0  0  0  0
   -5.0891    3.9384    0.0000 C   0  0  0  0  0  0  0  0  0  0  0  0
   -4.9337    4.7458    0.0000 C   0  0  0  0  0  0  0  0  0  0  0  0
   -4.1569    5.0149    0.0000 C   0  0  0  0  0  0  0  0  0  0  0  0
   -0.3488   -1.2292    0.0000 C   0  0  0  0  0  0  0  0  0  0  0  0
   -0.5042   -2.0365    0.0000 C   0  0  0  0  0  0  0  0  0  0  0  0
    0.1173   -2.5747    0.0000 C   0  0  0  0  0  0  0  0  0  0  0  0
    0.8941   -2.3056    0.0000 C   0  0  0  0  0  0  0  0  0  0  0  0
    1.0495   -1.4983    0.0000 C   0  0  0  0  0  0  0  0  0  0  0  0
    0.4280   -0.9601    0.0000 C   0  0  0  0  0  0  0  0  0  0  0  0
    0.5834   -0.1528    0.0000 B   0  0  0  0  0  0  0  0  0  0  0  0
    1.8263   -1.2292    0.0000 N   0  0  0  0  0  0  0  0  0  0  0  0
    2.4478   -1.7674    0.0000 C   0  0  0  0  0  0  0  0  0  0  0  0
    3.2247   -1.4983    0.0000 C   0  0  0  0  0  0  0  0  0  0  0  0
    2.7585   -0.1528    0.0000 C   0  0  0  0  0  0  0  0  0  0  0  0
    1.9817   -0.4219    0.0000 C   0  0  0  0  0  0  0  0  0  0  0  0
    2.9139    0.6546    0.0000 C   0  0  0  0  0  0  0  0  0  0  0  0
    2.2924    1.1928    0.0000 C   0  0  0  0  0  0  0  0  0  0  0  0
    1.5156    0.9237    0.0000 C   0  0  0  0  0  0  0  0  0  0  0  0
    1.3602    0.1163    0.0000 C   0  0  0  0  0  0  0  0  0  0  0  0
    2.2924   -2.5747    0.0000 C   0  0  0  0  0  0  0  0  0  0  0  0
    2.9139   -3.1129    0.0000 C   0  0  0  0  0  0  0  0  0  0  0  0
    3.6908   -2.8438    0.0000 C   0  0  0  0  0  0  0  0  0  0  0  0
    3.8461   -2.0365    0.0000 C   0  0  0  0  0  0  0  0  0  0  0  0
    2.4478    2.0001    0.0000 C   0  0  0  0  0  0  0  0  0  0  0  0
    3.2247    2.2692    0.0000 C   0  0  0  0  0  0  0  0  0  0  0  0
    1.8263    2.5383    0.0000 C   0  0  0  0  0  0  0  0  0  0  0  0
    2.6032    2.8074    0.0000 C   0  0  0  0  0  0  0  0  0  0  0  0
    4.3122   -3.3820    0.0000 C   0  0  0  0  0  0  0  0  0  0  0  0
    4.1569   -4.1894    0.0000 C   0  0  0  0  0  0  0  0  0  0  0  0
    4.9337   -3.9203    0.0000 C   0  0  0  0  0  0  0  0  0  0  0  0
    5.0891   -3.1129    0.0000 C   0  0  0  0  0  0  0  0  0  0  0  0
    1.4768   -3.0457    0.0000 C   0  0  0  0  0  0  0  0  0  0  0  0
    0.6935   -3.5963    0.0000 C   0  0  0  0  0  0  0  0  0  0  0  0
    0.7952   -4.4122    0.0000 C   0  0  0  0  0  0  0  0  0  0  0  0
    1.6025   -4.5675    0.0000 C   0  0  0  0  0  0  0  0  0  0  0  0
    1.9997   -3.8477    0.0000 C   0  0  0  0  0  0  0  0  0  0  0  0
   -0.0639   -3.2765    0.0000 C   0  0  0  0  0  0  0  0  0  0  0  0
   -0.7196   -3.7725    0.0000 C   0  0  0  0  0  0  0  0  0  0  0  0
   -0.6179   -4.5883    0.0000 C   0  0  0  0  0  0  0  0  0  0  0  0
    0.1395   -4.9081    0.0000 C   0  0  0  0  0  0  0  0  0  0  0  0
    2.0272   -5.2714    0.0000 C   0  0  0  0  0  0  0  0  0  0  0  0
    2.8492   -5.2556    0.0000 C   0  0  0  0  0  0  0  0  0  0  0  0
    3.2465   -4.5358    0.0000 C   0  0  0  0  0  0  0  0  0  0  0  0
    2.8217   -3.8318    0.0000 C   0  0  0  0  0  0  0  0  0  0  0  0
  1  2  2  0        0
  2  3  1  0        0
  3  4  2  0        0
  4  5  1  0        0
  5  6  2  0        0
  6  1  1  0        0
  2  7  1  0        0
  7  8  2  0        0
  8  9  1  0        0
  9  3  1  0        0
  8 10  1  0        0
 10 11  2  0        0
 11 12  1  0        0
 12 13  2  0        0
 13 14  1  0        0
 14 15  2  0        0
 15 10  1  0        0
  6 16  1  0        0
 16 17  2  0        0
 17 18  1  0        0
 18  1  1  0        0
  7 19  1  0        0
 19 20  2  0        0
 20 21  1  0        0
 21 22  2  0        0
 22 23  1  0        0
 23 24  2  0        0
 24 19  1  0        0
 16 25  1  0        0
 25 26  2  0        0
 26 27  1  0        0
 27 28  2  0        0
 28 17  1  0        0
 18 29  1  0        0
 29 30  2  0        0
 30 31  1  0        0
 31 32  2  0        0
 32 33  1  0        0
 33 34  2  0        0
 34 29  1  0        0
 28 30  1  0        0
 32 35  1  0        0
 26 36  1  0        0
 36 37  1  0        0
 36 38  1  0        0
 36 39  1  0        0
 35 40  1  0        0
 35 41  1  0        0
 35 42  1  0        0
  9 43  1  0        0
 43 44  2  0        0
 44 45  1  0        0
 45 46  2  0        0
 46 47  1  0        0
 47 48  2  0        0
 48 43  1  0        0
 48 49  1  0        0
 47 50  1  0        0
 50 51  1  0        0
 51 52  2  0        0
 52 53  1  0        0
 53 54  2  0        0
 54 50  1  0        0
 53 55  1  0        0
 55 56  2  0        0
 56 57  1  0        0
 57 58  2  0        0
 58 54  1  0        0
 51 59  1  0        0
 59 60  2  0        0
 60 61  1  0        0
 61 62  2  0        0
 62 52  1  0        0
 56 63  1  0        0
 63 64  1  0        0
 63 65  1  0        0
 63 66  1  0        0
 61 67  1  0        0
 67 68  1  0        0
 67 69  1  0        0
 67 70  1  0        0
 49  4  1  0        0
 49 58  1  0        0
 46 71  1  0        0
 71 59  1  0        0
 71 72  1  0        0
 72 73  2  0        0
 73 74  1  0        0
 74 75  2  0        0
 75 71  1  0        0
 72 76  1  0        0
 76 77  2  0        0
 77 78  1  0        0
 78 79  2  0        0
 79 73  1  0        0
 74 80  1  0        0
 80 81  2  0        0
 81 82  1  0        0
 82 83  2  0        0
 83 75  1  0        0
M  END
$$$$
