GDG1223_blind_candidate_0001
     RDKit          3D

149166  0  0  0  0  0  0  0  0999 V2000
   -0.9703   -0.6910    0.0000 N   0  0  0  0  0  0  0  0  0  0  0  0
   -1.7770    2.1176    0.0000 N   0  0  0  0  0  0  0  0  0  0  0  0
    0.5834   -0.1528    0.0000 B   0  0  0  0  0  0  0  0  0  0  0  0
    1.8263   -1.2292    0.0000 N   0  0  0  0  0  0  0  0  0  0  0  0
   -3.7117    3.6697    0.0000 C   0  0  0  0  0  0  0  0  0  0  0  0
   -2.9194    3.9338    0.0000 C   0  0  0  0  0  0  0  0  0  0  0  0
   -2.2939    3.3778    0.0000 C   0  0  0  0  0  0  0  0  0  0  0  0
   -2.4329    2.5438    0.0000 C   0  0  0  0  0  0  0  0  0  0  0  0
   -3.2252    2.2519    0.0000 C   0  0  0  0  0  0  0  0  0  0  0  0
   -3.8646    2.8635    0.0000 C   0  0  0  0  0  0  0  0  0  0  0  0
   -1.5016    3.6141    0.0000 C   0  0  0  0  0  0  0  0  0  0  0  0
   -0.9039    4.1701    0.0000 C   0  0  0  0  0  0  0  0  0  0  0  0
   -0.1533    3.9199    0.0000 C   0  0  0  0  0  0  0  0  0  0  0  0
    0.0830    3.1276    0.0000 C   0  0  0  0  0  0  0  0  0  0  0  0
   -0.5425    2.5299    0.0000 C   0  0  0  0  0  0  0  0  0  0  0  0
   -1.2931    2.7940    0.0000 C   0  0  0  0  0  0  0  0  0  0  0  0
   -1.3209    1.4735    0.0000 C   0  0  0  0  0  0  0  0  0  0  0  0
   -0.5286    1.7098    0.0000 C   0  0  0  0  0  0  0  0  0  0  0  0
    0.1108    1.2094    0.0000 C   0  0  0  0  0  0  0  0  0  0  0  0
   -0.0560    0.4032    0.0000 C   0  0  0  0  0  0  0  0  0  0  0  0
   -0.8344    0.1252    0.0000 C   0  0  0  0  0  0  0  0  0  0  0  0
   -1.4738    0.6534    0.0000 C   0  0  0  0  0  0  0  0  0  0  0  0
   -2.0576    0.0974    0.0000 C   0  0  0  0  0  0  0  0  0  0  0  0
   -1.7657   -0.6393    0.0000 C   0  0  0  0  0  0  0  0  0  0  0  0
   -0.3618   -1.2231    0.0000 C   0  0  0  0  0  0  0  0  0  0  0  0
    0.4305   -0.9312    0.0000 C   0  0  0  0  0  0  0  0  0  0  0  0
    1.0143   -1.4594    0.0000 C   0  0  0  0  0  0  0  0  0  0  0  0
    0.8475   -2.2517    0.0000 C   0  0  0  0  0  0  0  0  0  0  0  0
    0.0830   -2.5575    0.0000 C   0  0  0  0  0  0  0  0  0  0  0  0
   -0.5425   -2.0432    0.0000 C   0  0  0  0  0  0  0  0  0  0  0  0
    1.3201    0.0974    0.0000 C   0  0  0  0  0  0  0  0  0  0  0  0
    1.4730    0.9453    0.0000 C   0  0  0  0  0  0  0  0  0  0  0  0
    2.2514    1.2233    0.0000 C   0  0  0  0  0  0  0  0  0  0  0  0
    2.9047    0.6673    0.0000 C   0  0  0  0  0  0  0  0  0  0  0  0
    2.7657   -0.1389    0.0000 C   0  0  0  0  0  0  0  0  0  0  0  0
    1.9595   -0.4169    0.0000 C   0  0  0  0  0  0  0  0  0  0  0  0
    2.4321   -1.7930    0.0000 C   0  0  0  0  0  0  0  0  0  0  0  0
    3.1966   -1.5428    0.0000 C   0  0  0  0  0  0  0  0  0  0  0  0
    3.8360   -2.0432    0.0000 C   0  0  0  0  0  0  0  0  0  0  0  0
    3.6692   -2.8633    0.0000 C   0  0  0  0  0  0  0  0  0  0  0  0
    2.9047   -3.1413    0.0000 C   0  0  0  0  0  0  0  0  0  0  0  0
    2.2792   -2.5853    0.0000 C   0  0  0  0  0  0  0  0  0  0  0  0
    1.5008   -3.0301    0.0000 C   0  0  0  0  0  0  0  0  0  0  0  0
    1.5008   -3.6278   -0.7923 C   0  0  0  0  0  0  0  0  0  0  0  0
    1.5008   -4.4618   -0.7645 C   0  0  0  0  0  0  0  0  0  0  0  0
    1.5008   -4.8788   -1.4039 C   0  0  0  0  0  0  0  0  0  0  0  0
    1.5008   -4.5730   -2.1684 C   0  0  0  0  0  0  0  0  0  0  0  0
    1.5008   -3.7390   -2.2379 C   0  0  0  0  0  0  0  0  0  0  0  0
    1.5008   -3.2525   -1.5707 C   0  0  0  0  0  0  0  0  0  0  0  0
    1.5008   -3.8224    0.5004 C   0  0  0  0  0  0  0  0  0  0  0  0
    1.5008   -3.8224    1.3066 C   0  0  0  0  0  0  0  0  0  0  0  0
    1.5008   -4.5313    1.7375 C   0  0  0  0  0  0  0  0  0  0  0  0
    1.5008   -5.2263    1.3205 C   0  0  0  0  0  0  0  0  0  0  0  0
    1.5008   -5.2402    0.5004 C   0  0  0  0  0  0  0  0  0  0  0  0
    1.5008   -4.5452    0.0834 C   0  0  0  0  0  0  0  0  0  0  0  0
   -2.8777    0.3476    0.0000 C   0  0  0  0  0  0  0  0  0  0  0  0
   -3.0862    1.1538    0.0000 C   0  0  0  0  0  0  0  0  0  0  0  0
   -3.8646    1.3623    0.0000 C   0  0  0  0  0  0  0  0  0  0  0  0
   -4.4484    0.7924    0.0000 C   0  0  0  0  0  0  0  0  0  0  0  0
   -4.2538   -0.0138    0.0000 C   0  0  0  0  0  0  0  0  0  0  0  0
   -3.4754   -0.2362    0.0000 C   0  0  0  0  0  0  0  0  0  0  0  0
   -2.2661   -1.2509    0.0000 C   0  0  0  0  0  0  0  0  0  0  0  0
   -3.0862   -1.1814    0.0000 C   0  0  0  0  0  0  0  0  0  0  0  0
   -3.6144   -1.7930    0.0000 C   0  0  0  0  0  0  0  0  0  0  0  0
   -3.3642   -2.5853    0.0000 C   0  0  0  0  0  0  0  0  0  0  0  0
   -2.5441   -2.6687    0.0000 C   0  0  0  0  0  0  0  0  0  0  0  0
   -2.0020   -2.0432    0.0000 C   0  0  0  0  0  0  0  0  0  0  0  0
   -4.3094    4.2396    0.0000 C   0  0  0  0  0  0  0  0  0  0  0  0
   -3.6790    5.6447    0.0000 C   0  0  0  0  0  0  0  0  0  0  0  0
   -5.1819    4.0684   -1.2574 C   0  0  0  0  0  0  0  0  0  0  0  0
   -5.1819    4.0684    1.2574 C   0  0  0  0  0  0  0  0  0  0  0  0
    0.4722    4.4759    0.0000 C   0  0  0  0  0  0  0  0  0  0  0  0
    1.8205    3.7318    0.0000 C   0  0  0  0  0  0  0  0  0  0  0  0
    0.3736    5.3595   -1.2574 C   0  0  0  0  0  0  0  0  0  0  0  0
    0.3736    5.3595    1.2574 C   0  0  0  0  0  0  0  0  0  0  0  0
    2.4321    2.0156    0.0000 C   0  0  0  0  0  0  0  0  0  0  0  0
    3.9618    2.1932    0.0000 C   0  0  0  0  0  0  0  0  0  0  0  0
    1.8385    2.6775   -1.2574 C   0  0  0  0  0  0  0  0  0  0  0  0
    1.8385    2.6775    1.2574 C   0  0  0  0  0  0  0  0  0  0  0  0
    4.3086   -3.3915    0.0000 C   0  0  0  0  0  0  0  0  0  0  0  0
    3.7797   -4.8378    0.0000 C   0  0  0  0  0  0  0  0  0  0  0  0
    5.1667   -3.1587   -1.2574 C   0  0  0  0  0  0  0  0  0  0  0  0
    5.1667   -3.1587    1.2574 C   0  0  0  0  0  0  0  0  0  0  0  0
   -2.6850    4.3694   -1.4054 H   0  0  0  0  0  0  0  0  0  0  0  0
   -3.2722    2.3848   -1.6322 H   0  0  0  0  0  0  0  0  0  0  0  0
   -3.9374    2.8720    1.5289 H   0  0  0  0  0  0  0  0  0  0  0  0
   -1.3490    4.5857    1.3437 H   0  0  0  0  0  0  0  0  0  0  0  0
    0.0136    3.2956   -1.5791 H   0  0  0  0  0  0  0  0  0  0  0  0
    0.1046    1.5591    1.6837 H   0  0  0  0  0  0  0  0  0  0  0  0
   -0.5680   -3.6216   -0.2738 H   0  0  0  0  0  0  0  0  0  0  0  0
   -0.6283   -2.4528    1.4115 H   0  0  0  0  0  0  0  0  0  0  0  0
    1.6236    0.5857    1.6383 H   0  0  0  0  0  0  0  0  0  0  0  0
    3.5774    0.5358    1.1341 H   0  0  0  0  0  0  0  0  0  0  0  0
    4.6747   -1.1148   -0.2191 H   0  0  0  0  0  0  0  0  0  0  0  0
    3.2752   -3.0135    1.6766 H   0  0  0  0  0  0  0  0  0  0  0  0
    1.7011   -6.0700   -1.5417 H   0  0  0  0  0  0  0  0  0  0  0  0
    1.5020   -5.2279   -3.1508 H   0  0  0  0  0  0  0  0  0  0  0  0
    1.3177   -3.3962   -3.3649 H   0  0  0  0  0  0  0  0  0  0  0  0
    1.5982   -2.1435   -2.1235 H   0  0  0  0  0  0  0  0  0  0  0  0
    1.3280   -2.9283    2.1541 H   0  0  0  0  0  0  0  0  0  0  0  0
    1.5281   -4.5967    2.9061 H   0  0  0  0  0  0  0  0  0  0  0  0
    1.7107   -6.2017    1.9438 H   0  0  0  0  0  0  0  0  0  0  0  0
    1.0578   -6.3557    0.2309 H   0  0  0  0  0  0  0  0  0  0  0  0
   -2.9847    1.0740    1.6114 H   0  0  0  0  0  0  0  0  0  0  0  0
   -4.9006    1.4380    1.1448 H   0  0  0  0  0  0  0  0  0  0  0  0
   -5.3770    1.1759   -0.6776 H   0  0  0  0  0  0  0  0  0  0  0  0
   -5.3378   -0.5595   -0.1803 H   0  0  0  0  0  0  0  0  0  0  0  0
   -3.7149   -0.2394   -1.6176 H   0  0  0  0  0  0  0  0  0  0  0  0
   -3.1523   -1.2793    1.6394 H   0  0  0  0  0  0  0  0  0  0  0  0
   -4.6224   -2.0808    0.6828 H   0  0  0  0  0  0  0  0  0  0  0  0
   -4.0050   -3.4705   -0.4088 H   0  0  0  0  0  0  0  0  0  0  0  0
   -2.3007   -3.6748    0.5128 H   0  0  0  0  0  0  0  0  0  0  0  0
   -1.9076   -2.4355   -1.4347 H   0  0  0  0  0  0  0  0  0  0  0  0
   -3.5302    5.9761   -1.0277 H   0  0  0  0  0  0  0  0  0  0  0  0
   -4.3422    6.3405    0.5138 H   0  0  0  0  0  0  0  0  0  0  0  0
   -2.7183    5.6118    0.5138 H   0  0  0  0  0  0  0  0  0  0  0  0
   -4.5412    3.9231   -2.1272 H   0  0  0  0  0  0  0  0  0  0  0  0
   -5.8301    3.2008   -1.1345 H   0  0  0  0  0  0  0  0  0  0  0  0
   -5.7919    4.9603   -1.4005 H   0  0  0  0  0  0  0  0  0  0  0  0
   -5.9708    4.8206    1.2574 H   0  0  0  0  0  0  0  0  0  0  0  0
   -5.6281    3.0739    1.2574 H   0  0  0  0  0  0  0  0  0  0  0  0
   -4.5643    4.1896    2.1474 H   0  0  0  0  0  0  0  0  0  0  0  0
    1.6420    2.6565    0.0000 H   0  0  0  0  0  0  0  0  0  0  0  0
    2.3869    4.0061   -0.8900 H   0  0  0  0  0  0  0  0  0  0  0  0
    2.3869    4.0061    0.8900 H   0  0  0  0  0  0  0  0  0  0  0  0
    1.1383    5.0590   -1.9736 H   0  0  0  0  0  0  0  0  0  0  0  0
   -0.6121    5.2421   -1.7076 H   0  0  0  0  0  0  0  0  0  0  0  0
    0.5247    6.4030   -0.9810 H   0  0  0  0  0  0  0  0  0  0  0  0
   -0.4377    6.0771    1.1345 H   0  0  0  0  0  0  0  0  0  0  0  0
    0.1759    4.7330    2.1272 H   0  0  0  0  0  0  0  0  0  0  0  0
    1.3127    5.8940    1.4005 H   0  0  0  0  0  0  0  0  0  0  0  0
    4.4254    1.3511   -0.5138 H   0  0  0  0  0  0  0  0  0  0  0  0
    4.2201    3.1192   -0.5138 H   0  0  0  0  0  0  0  0  0  0  0  0
    4.3227    2.2351    1.0277 H   0  0  0  0  0  0  0  0  0  0  0  0
    2.6411    3.1156   -1.8507 H   0  0  0  0  0  0  0  0  0  0  0  0
    1.3160    1.9271   -1.8507 H   0  0  0  0  0  0  0  0  0  0  0  0
    1.1382    3.4583   -0.9607 H   0  0  0  0  0  0  0  0  0  0  0  0
    1.1382    3.4583    0.9607 H   0  0  0  0  0  0  0  0  0  0  0  0
    1.3160    1.9271    1.8507 H   0  0  0  0  0  0  0  0  0  0  0  0
    2.6411    3.1156    1.8507 H   0  0  0  0  0  0  0  0  0  0  0  0
    3.1723   -5.0026   -0.8900 H   0  0  0  0  0  0  0  0  0  0  0  0
    4.6200   -5.5320   -0.0000 H   0  0  0  0  0  0  0  0  0  0  0  0
    3.1723   -5.0026    0.8900 H   0  0  0  0  0  0  0  0  0  0  0  0
    5.4194   -4.1187   -1.7076 H   0  0  0  0  0  0  0  0  0  0  0  0
    4.6063   -2.5578   -1.9736 H   0  0  0  0  0  0  0  0  0  0  0  0
    6.0818   -2.6350   -0.9810 H   0  0  0  0  0  0  0  0  0  0  0  0
    6.2210   -3.1484    0.9810 H   0  0  0  0  0  0  0  0  0  0  0  0
    4.8997   -2.2027    1.7076 H   0  0  0  0  0  0  0  0  0  0  0  0
    4.9868   -3.9605    1.9736 H   0  0  0  0  0  0  0  0  0  0  0  0
  5  6  2  0
  6  7  1  0
  7  8  2  0
  8  9  1  0
  9 10  2  0
 10  5  1  0
 11 12  2  0
 12 13  1  0
 13 14  2  0
 14 15  1  0
 15 16  2  0
 16 11  1  0
 17 18  2  0
 18 19  1  0
 19 20  2  0
 20 21  1  0
 21 22  2  0
 22 17  1  0
 25 26  2  0
 26 27  1  0
 27 28  2  0
 28 29  1  0
 29 30  2  0
 30 25  1  0
 31 32  2  0
 32 33  1  0
 33 34  2  0
 34 35  1  0
 35 36  2  0
 36 31  1  0
 37 38  2  0
 38 39  1  0
 39 40  2  0
 40 41  1  0
 41 42  2  0
 42 37  1  0
 44 45  1  0
 45 46  2  0
 46 47  1  0
 47 48  2  0
 48 49  1  0
 49 44  2  0
 50 51  2  0
 51 52  1  0
 52 53  2  0
 53 54  1  0
 54 55  2  0
 55 50  1  0
 56 57  2  0
 57 58  1  0
 58 59  2  0
 59 60  1  0
 60 61  2  0
 61 56  1  0
 62 63  2  0
 63 64  1  0
 64 65  2  0
 65 66  1  0
 66 67  2  0
 67 62  1  0
  7 11  1  0
  8  2  1  0
 16  2  1  0
  2 17  1  0
 15 18  1  0
 22 23  1  0
 23 24  2  0
 24  1  1  0
  1 21  1  0
  1 25  1  0
 23 56  1  0
 24 62  1  0
 20  3  1  0
  3 26  1  0
  3 31  1  0
  4 27  1  0
  4 36  1  0
  4 37  1  0
 35 38  1  0
 28 43  1  0
 43 42  1  0
 43 44  1  0
 43 50  1  0
 45 55  1  0
  5 68  1  0
 68 69  1  0
 68 70  1  0
 68 71  1  0
 13 72  1  0
 72 73  1  0
 72 74  1  0
 72 75  1  0
 33 76  1  0
 76 77  1  0
 76 78  1  0
 76 79  1  0
 40 80  1  0
 80 81  1  0
 80 82  1  0
 80 83  1  0
  6 84  1  0
  9 85  1  0
 10 86  1  0
 12 87  1  0
 14 88  1  0
 19 89  1  0
 29 90  1  0
 30 91  1  0
 32 92  1  0
 34 93  1  0
 39 94  1  0
 41 95  1  0
 46 96  1  0
 47 97  1  0
 48 98  1  0
 49 99  1  0
 51100  1  0
 52101  1  0
 53102  1  0
 54103  1  0
 57104  1  0
 58105  1  0
 59106  1  0
 60107  1  0
 61108  1  0
 63109  1  0
 64110  1  0
 65111  1  0
 66112  1  0
 67113  1  0
 69114  1  0
 69115  1  0
 69116  1  0
 70117  1  0
 70118  1  0
 70119  1  0
 71120  1  0
 71121  1  0
 71122  1  0
 73123  1  0
 73124  1  0
 73125  1  0
 74126  1  0
 74127  1  0
 74128  1  0
 75129  1  0
 75130  1  0
 75131  1  0
 77132  1  0
 77133  1  0
 77134  1  0
 78135  1  0
 78136  1  0
 78137  1  0
 79138  1  0
 79139  1  0
 79140  1  0
 81141  1  0
 81142  1  0
 81143  1  0
 82144  1  0
 82145  1  0
 82146  1  0
 83147  1  0
 83148  1  0
 83149  1  0
M  END
>  <CASE_ID>  (1) 
GDG1223

>  <BUILDER>  (1) 
RetainMol blind-modeling worker / RDKit

>  <ANCHOR_ATOM_INDICES>  (1) 
1,2,3,4

$$$$
