GDG1223_blind_candidate_0001
     RDKit          3D

149166  0  0  0  0  0  0  0  0999 V2000
   -0.9703   -0.6910    0.0000 N   0  0  0  0  0  0  0  0  0  0  0  0
   -1.7770    2.1176    0.0000 N   0  0  0  0  0  0  0  0  0  0  0  0
    0.5834   -0.1528    0.0000 B   0  0  0  0  0  0  0  0  0  0  0  0
    1.8263   -1.2292    0.0000 N   0  0  0  0  0  0  0  0  0  0  0  0
   -4.8950    5.3187   -1.7809 C   0  0  0  0  0  0  0  0  0  0  0  0
   -6.6401    3.8940   -1.6720 C   0  0  0  0  0  0  0  0  0  0  0  0
   -6.1410    5.1375   -0.8328 C   0  0  0  0  0  0  0  0  0  0  0  0
   -5.4010    4.3487    0.2755 C   0  0  0  0  0  0  0  0  0  0  0  0
   -4.4296    4.2269   -0.9170 C   0  0  0  0  0  0  0  0  0  0  0  0
   -5.2329    3.9403   -2.2427 C   0  0  0  0  0  0  0  0  0  0  0  0
   -6.5283    2.6010   -0.8533 C   0  0  0  0  0  0  0  0  0  0  0  0
   -6.3465    3.1004    0.5330 C   0  0  0  0  0  0  0  0  0  0  0  0
   -4.4654    4.1250    2.8976 C   0  0  0  0  0  0  0  0  0  0  0  0
   -2.9607    3.7008    2.7217 C   0  0  0  0  0  0  0  0  0  0  0  0
   -2.4382    2.3263    2.4660 C   0  0  0  0  0  0  0  0  0  0  0  0
   -4.4778    4.4915    1.4111 C   0  0  0  0  0  0  0  0  0  0  0  0
   -2.1480    2.0524    1.1869 C   0  0  0  0  0  0  0  0  0  0  0  0
   -3.1475    4.1805    1.3117 C   0  0  0  0  0  0  0  0  0  0  0  0
    0.6478   -3.1979   -0.3428 C   0  0  0  0  0  0  0  0  0  0  0  0
   -0.2050   -1.9006    2.0046 C   0  0  0  0  0  0  0  0  0  0  0  0
   -2.2410    0.7039    0.4693 C   0  0  0  0  0  0  0  0  0  0  0  0
   -4.1874    1.9992   -0.3822 C   0  0  0  0  0  0  0  0  0  0  0  0
   -3.3643    0.8010   -0.2688 C   0  0  0  0  0  0  0  0  0  0  0  0
    0.0817   -0.8424   -1.9354 C   0  0  0  0  0  0  0  0  0  0  0  0
    2.8579    0.3258   -1.6715 C   0  0  0  0  0  0  0  0  0  0  0  0
   -0.6601   -1.2869    0.8525 C   0  0  0  0  0  0  0  0  0  0  0  0
    3.4569   -0.6879   -0.6926 C   0  0  0  0  0  0  0  0  0  0  0  0
    4.7677   -0.8314   -1.4827 C   0  0  0  0  0  0  0  0  0  0  0  0
    3.8179   -0.4345   -2.5916 C   0  0  0  0  0  0  0  0  0  0  0  0
    2.7257   -1.2608   -1.9331 C   0  0  0  0  0  0  0  0  0  0  0  0
    4.2220   -1.5583    1.2142 C   0  0  0  0  0  0  0  0  0  0  0  0
    0.1945   -2.4247    0.7364 C   0  0  0  0  0  0  0  0  0  0  0  0
    4.6963   -1.9086    2.5270 C   0  0  0  0  0  0  0  0  0  0  0  0
    5.9664   -2.0851    4.6403 C   0  0  0  0  0  0  0  0  0  0  0  0
    7.1395   -2.1113    3.7476 C   0  0  0  0  0  0  0  0  0  0  0  0
    5.7931   -2.4923    1.9586 C   0  0  0  0  0  0  0  0  0  0  0  0
    5.3901   -2.3371    0.5471 C   0  0  0  0  0  0  0  0  0  0  0  0
    7.1315   -2.3535    2.4369 C   0  0  0  0  0  0  0  0  0  0  0  0
    8.0917   -2.3307    1.3597 C   0  0  0  0  0  0  0  0  0  0  0  0
    7.8397   -2.1605    0.0388 C   0  0  0  0  0  0  0  0  0  0  0  0
    6.4642   -1.6975   -0.4225 C   0  0  0  0  0  0  0  0  0  0  0  0
    5.4378   -2.2204   -1.5489 C   0  0  0  0  0  0  0  0  0  0  0  0
    5.0583   -3.2621   -0.5811 C   0  0  0  0  0  0  0  0  0  0  0  0
    6.1683   -0.3303   -1.1023 C   0  0  0  0  0  0  0  0  0  0  0  0
    7.8007    0.9509   -1.8969 C   0  0  0  0  0  0  0  0  0  0  0  0
    6.5368    1.4735   -2.3063 C   0  0  0  0  0  0  0  0  0  0  0  0
    6.6742    1.0577   -0.8476 C   0  0  0  0  0  0  0  0  0  0  0  0
    3.7410    2.6965   -4.7125 C   0  0  0  0  0  0  0  0  0  0  0  0
    3.3417    2.6766   -3.5865 C   0  0  0  0  0  0  0  0  0  0  0  0
    5.7124   -2.8622   -2.8260 C   0  0  0  0  0  0  0  0  0  0  0  0
    5.1767   -4.4535   -1.2172 C   0  0  0  0  0  0  0  0  0  0  0  0
    5.4780   -4.2018   -2.6076 C   0  0  0  0  0  0  0  0  0  0  0  0
    6.1747   -2.0535   -3.9062 C   0  0  0  0  0  0  0  0  0  0  0  0
    6.6644   -0.7923   -3.7161 C   0  0  0  0  0  0  0  0  0  0  0  0
    6.7836   -0.0674   -2.4798 C   0  0  0  0  0  0  0  0  0  0  0  0
   -5.3582    1.8103   -1.3629 C   0  0  0  0  0  0  0  0  0  0  0  0
   -3.3727    3.2086   -0.6786 C   0  0  0  0  0  0  0  0  0  0  0  0
   -4.6977    2.5826   -2.5593 C   0  0  0  0  0  0  0  0  0  0  0  0
   -4.9630    1.4096   -3.4946 C   0  0  0  0  0  0  0  0  0  0  0  0
   -4.8833    0.5622   -2.2132 C   0  0  0  0  0  0  0  0  0  0  0  0
   -3.3580    2.2870   -1.8798 C   0  0  0  0  0  0  0  0  0  0  0  0
   -1.2128   -0.3467   -1.3521 C   0  0  0  0  0  0  0  0  0  0  0  0
   -3.4137    0.6485   -1.7389 C   0  0  0  0  0  0  0  0  0  0  0  0
   -2.1654    0.0568   -2.2162 C   0  0  0  0  0  0  0  0  0  0  0  0
    0.0500   -0.9406   -3.4453 C   0  0  0  0  0  0  0  0  0  0  0  0
    1.2125   -0.3301   -3.6517 C   0  0  0  0  0  0  0  0  0  0  0  0
    1.5718   -0.2997   -2.2089 C   0  0  0  0  0  0  0  0  0  0  0  0
   -7.8736    4.1098   -2.5479 C   0  0  0  0  0  0  0  0  0  0  0  0
   -9.0801    4.2368   -1.6112 C   0  0  0  0  0  0  0  0  0  0  0  0
   -7.7137    5.3913   -3.3688 C   0  0  0  0  0  0  0  0  0  0  0  0
   -8.1050    2.9308   -3.4965 C   0  0  0  0  0  0  0  0  0  0  0  0
   -4.0143    5.2169    3.9052 C   0  0  0  0  0  0  0  0  0  0  0  0
   -2.5550    4.7002    3.8129 C   0  0  0  0  0  0  0  0  0  0  0  0
   -4.2132    6.6397    3.4032 C   0  0  0  0  0  0  0  0  0  0  0  0
   -4.6456    5.0374    5.2784 C   0  0  0  0  0  0  0  0  0  0  0  0
    4.6420   -1.5078    3.9612 C   0  0  0  0  0  0  0  0  0  0  0  0
    6.3060   -1.3737    5.9544 C   0  0  0  0  0  0  0  0  0  0  0  0
    4.5714    0.0216    4.0023 C   0  0  0  0  0  0  0  0  0  0  0  0
    3.4255   -2.1118    4.6662 C   0  0  0  0  0  0  0  0  0  0  0  0
    9.0892   -2.3997   -0.8299 C   0  0  0  0  0  0  0  0  0  0  0  0
    8.8096   -2.6597   -2.3047 C   0  0  0  0  0  0  0  0  0  0  0  0
   10.0129   -1.1789   -0.7191 C   0  0  0  0  0  0  0  0  0  0  0  0
    9.8372   -3.6562   -0.3280 C   0  0  0  0  0  0  0  0  0  0  0  0
   -5.1366   -2.0687   -5.1315 H   0  0  0  0  0  0  0  0  0  0  0  0
   -4.4213    6.1663   -2.2339 H   0  0  0  0  0  0  0  0  0  0  0  0
   -5.9077    2.3708    1.2149 H   0  0  0  0  0  0  0  0  0  0  0  0
   -5.2263    3.4266    3.2284 H   0  0  0  0  0  0  0  0  0  0  0  0
   -5.6800   -1.5270   -5.2774 H   0  0  0  0  0  0  0  0  0  0  0  0
   -2.3566    1.5901    3.2494 H   0  0  0  0  0  0  0  0  0  0  0  0
    3.9987   -0.2740   -3.6388 H   0  0  0  0  0  0  0  0  0  0  0  0
   -2.9985   -4.1860    1.1715 H   0  0  0  0  0  0  0  0  0  0  0  0
   -0.6813   -6.8927    0.7936 H   0  0  0  0  0  0  0  0  0  0  0  0
    5.7443   -3.1354    4.8835 H   0  0  0  0  0  0  0  0  0  0  0  0
    9.1069   -2.4978    1.6798 H   0  0  0  0  0  0  0  0  0  0  0  0
   -1.0545   -6.2135    0.8689 H   0  0  0  0  0  0  0  0  0  0  0  0
    5.9861    2.1909   -2.8663 H   0  0  0  0  0  0  0  0  0  0  0  0
    6.6302    1.6803    0.0279 H   0  0  0  0  0  0  0  0  0  0  0  0
    4.0916    2.7189   -5.7016 H   0  0  0  0  0  0  0  0  0  0  0  0
    3.0037    2.6372   -2.5892 H   0  0  0  0  0  0  0  0  0  0  0  0
    5.0999   -5.4389   -0.7930 H   0  0  0  0  0  0  0  0  0  0  0  0
    5.5792   -4.9876   -3.3359 H   0  0  0  0  0  0  0  0  0  0  0  0
    6.1920   -2.4765   -4.9007 H   0  0  0  0  0  0  0  0  0  0  0  0
    7.0232   -0.2498   -4.5837 H   0  0  0  0  0  0  0  0  0  0  0  0
   -7.2772    3.4846    0.9519 H   0  0  0  0  0  0  0  0  0  0  0  0
   -5.9538    1.4003   -3.9333 H   0  0  0  0  0  0  0  0  0  0  0  0
   -4.2066    1.2162   -4.2545 H   0  0  0  0  0  0  0  0  0  0  0  0
   -5.3562   -0.4139   -2.1548 H   0  0  0  0  0  0  0  0  0  0  0  0
    1.5490    3.9432   -5.5568 H   0  0  0  0  0  0  0  0  0  0  0  0
   -2.4279   -3.8308    1.5672 H   0  0  0  0  0  0  0  0  0  0  0  0
   -1.8970    0.2488   -3.2430 H   0  0  0  0  0  0  0  0  0  0  0  0
   -0.6772   -1.4069   -4.0819 H   0  0  0  0  0  0  0  0  0  0  0  0
    1.7873   -0.0951   -4.5264 H   0  0  0  0  0  0  0  0  0  0  0  0
    1.0368    4.2975   -6.0260 H   0  0  0  0  0  0  0  0  0  0  0  0
   -8.9205    5.0435   -0.8991 H   0  0  0  0  0  0  0  0  0  0  0  0
   -9.9810    4.4482   -2.1832 H   0  0  0  0  0  0  0  0  0  0  0  0
   -9.2285    3.3092   -1.0611 H   0  0  0  0  0  0  0  0  0  0  0  0
   -7.5840    6.2488   -2.7138 H   0  0  0  0  0  0  0  0  0  0  0  0
   -6.8465    5.3201   -4.0229 H   0  0  0  0  0  0  0  0  0  0  0  0
   -8.5968    5.5507   -3.9852 H   0  0  0  0  0  0  0  0  0  0  0  0
   -9.0794    3.0245   -3.9741 H   0  0  0  0  0  0  0  0  0  0  0  0
   -7.3480    2.9197   -4.2786 H   0  0  0  0  0  0  0  0  0  0  0  0
   -8.0803    1.9896   -2.9492 H   0  0  0  0  0  0  0  0  0  0  0  0
    1.1553   -4.1343   -0.2835 H   0  0  0  0  0  0  0  0  0  0  0  0
   -1.8106    5.4316    3.5033 H   0  0  0  0  0  0  0  0  0  0  0  0
   -2.2213    4.2057    4.7226 H   0  0  0  0  0  0  0  0  0  0  0  0
   -3.7657    7.3486    4.0977 H   0  0  0  0  0  0  0  0  0  0  0  0
   -3.7560    6.7722    2.4250 H   0  0  0  0  0  0  0  0  0  0  0  0
   -5.2752    6.8603    3.3168 H   0  0  0  0  0  0  0  0  0  0  0  0
   -5.7073    5.2742    5.2366 H   0  0  0  0  0  0  0  0  0  0  0  0
   -4.5338    4.0130    5.6264 H   0  0  0  0  0  0  0  0  0  0  0  0
   -4.1718    5.7012    5.9986 H   0  0  0  0  0  0  0  0  0  0  0  0
    7.1210   -1.8993    6.4469 H   0  0  0  0  0  0  0  0  0  0  0  0
    6.6246   -0.3520    5.7682 H   0  0  0  0  0  0  0  0  0  0  0  0
    5.4520   -1.3636    6.6257 H   0  0  0  0  0  0  0  0  0  0  0  0
    4.4199    0.3810    5.0167 H   0  0  0  0  0  0  0  0  0  0  0  0
    5.4882    0.4521    3.6040 H   0  0  0  0  0  0  0  0  0  0  0  0
    3.7397    0.3564    3.3864 H   0  0  0  0  0  0  0  0  0  0  0  0
    2.5168   -1.7705    4.1749 H   0  0  0  0  0  0  0  0  0  0  0  0
    3.4490   -3.1989    4.6176 H   0  0  0  0  0  0  0  0  0  0  0  0
    3.3914   -1.8088    5.7100 H   0  0  0  0  0  0  0  0  0  0  0  0
    8.4358   -1.7721   -2.7917 H   0  0  0  0  0  0  0  0  0  0  0  0
    9.7364   -2.9386   -2.8027 H   0  0  0  0  0  0  0  0  0  0  0  0
    8.1011   -3.4735   -2.4299 H   0  0  0  0  0  0  0  0  0  0  0  0
   10.9221   -1.3525   -1.2903 H   0  0  0  0  0  0  0  0  0  0  0  0
    9.5145   -0.2949   -1.1157 H   0  0  0  0  0  0  0  0  0  0  0  0
   10.2848   -0.9868    0.3158 H   0  0  0  0  0  0  0  0  0  0  0  0
   10.3983   -3.4812    0.5851 H   0  0  0  0  0  0  0  0  0  0  0  0
    9.1388   -4.4722   -0.1558 H   0  0  0  0  0  0  0  0  0  0  0  0
   10.5534   -3.9766   -1.0814 H   0  0  0  0  0  0  0  0  0  0  0  0
  5  6  2  0
  6  7  1  0
  7  8  2  0
  8  9  1  0
  9 10  2  0
 10  5  1  0
 11 12  2  0
 12 13  1  0
 13 14  2  0
 14 15  1  0
 15 16  2  0
 16 11  1  0
 17 18  2  0
 18 19  1  0
 19 20  2  0
 20 21  1  0
 21 22  2  0
 22 17  1  0
 25 26  2  0
 26 27  1  0
 27 28  2  0
 28 29  1  0
 29 30  2  0
 30 25  1  0
 31 32  2  0
 32 33  1  0
 33 34  2  0
 34 35  1  0
 35 36  2  0
 36 31  1  0
 37 38  2  0
 38 39  1  0
 39 40  2  0
 40 41  1  0
 41 42  2  0
 42 37  1  0
 44 45  1  0
 45 46  2  0
 46 47  1  0
 47 48  2  0
 48 49  1  0
 49 44  2  0
 50 51  2  0
 51 52  1  0
 52 53  2  0
 53 54  1  0
 54 55  2  0
 55 50  1  0
 56 57  2  0
 57 58  1  0
 58 59  2  0
 59 60  1  0
 60 61  2  0
 61 56  1  0
 62 63  2  0
 63 64  1  0
 64 65  2  0
 65 66  1  0
 66 67  2  0
 67 62  1  0
  7 11  1  0
  8  2  1  0
 16  2  1  0
  2 17  1  0
 15 18  1  0
 22 23  1  0
 23 24  2  0
 24  1  1  0
  1 21  1  0
  1 25  1  0
 23 56  1  0
 24 62  1  0
 20  3  1  0
  3 26  1  0
  3 31  1  0
  4 27  1  0
  4 36  1  0
  4 37  1  0
 35 38  1  0
 28 43  1  0
 43 42  1  0
 43 44  1  0
 43 50  1  0
 45 55  1  0
  5 68  1  0
 68 69  1  0
 68 70  1  0
 68 71  1  0
 13 72  1  0
 72 73  1  0
 72 74  1  0
 72 75  1  0
 33 76  1  0
 76 77  1  0
 76 78  1  0
 76 79  1  0
 40 80  1  0
 80 81  1  0
 80 82  1  0
 80 83  1  0
  6 84  1  0
  9 85  1  0
 10 86  1  0
 12 87  1  0
 14 88  1  0
 19 89  1  0
 29 90  1  0
 30 91  1  0
 32 92  1  0
 34 93  1  0
 39 94  1  0
 41 95  1  0
 46 96  1  0
 47 97  1  0
 48 98  1  0
 49 99  1  0
 51100  1  0
 52101  1  0
 53102  1  0
 54103  1  0
 57104  1  0
 58105  1  0
 59106  1  0
 60107  1  0
 61108  1  0
 63109  1  0
 64110  1  0
 65111  1  0
 66112  1  0
 67113  1  0
 69114  1  0
 69115  1  0
 69116  1  0
 70117  1  0
 70118  1  0
 70119  1  0
 71120  1  0
 71121  1  0
 71122  1  0
 73123  1  0
 73124  1  0
 73125  1  0
 74126  1  0
 74127  1  0
 74128  1  0
 75129  1  0
 75130  1  0
 75131  1  0
 77132  1  0
 77133  1  0
 77134  1  0
 78135  1  0
 78136  1  0
 78137  1  0
 79138  1  0
 79139  1  0
 79140  1  0
 81141  1  0
 81142  1  0
 81143  1  0
 82144  1  0
 82145  1  0
 82146  1  0
 83147  1  0
 83148  1  0
 83149  1  0
M  END
>  <CASE_ID>  (1) 
GDG1223

>  <BUILDER>  (1) 
RetainMol blind-modeling worker / RDKit

>  <ANCHOR_ATOM_INDICES>  (1) 
1,2,3,4

$$$$
