 xtb: 6.7.1 (edcfbbe)
          04252603023D

  3  2  0     0  0            999 V2000
    0.0080    0.0102   -0.0000 O   0  0  0  0  0  0  0  0  0  0  0  0
    0.9662   -0.0130    0.0000 H   0  0  0  0  0  0  0  0  0  0  0  0
   -0.2542    0.9329    0.0000 H   0  0  0  0  0  0  0  0  0  0  0  0
  1  2  1  0  0  0  0
  1  3  1  0  0  0  0
M  END
