
Actelion Java MolfileCreator 1.0

 33 32  0  0  0  0  0  0  0  0999 V2000
   41.5692   -0.7500    0.0000 C   0  0  0  0  0  0  0  0  0  0  0  0
   40.2702    0.0000    0.0000 C   0  0  0  0  0  0  0  0  0  0  0  0
   38.9711   -0.7500    0.0000 C   0  0  0  0  0  0  0  0  0  0  0  0
   37.6721    0.0000    0.0000 C   0  0  0  0  0  0  0  0  0  0  0  0
   36.3731   -0.7500    0.0000 C   0  0  0  0  0  0  0  0  0  0  0  0
   35.0740    0.0000    0.0000 C   0  0  0  0  0  0  0  0  0  0  0  0
   33.7750   -0.7500    0.0000 C   0  0  0  0  0  0  0  0  0  0  0  0
   32.4760    0.0000    0.0000 C   0  0  0  0  0  0  0  0  0  0  0  0
   31.1769   -0.7500    0.0000 C   0  0  0  0  0  0  0  0  0  0  0  0
   29.8779    0.0000    0.0000 C   0  0  0  0  0  0  0  0  0  0  0  0
   28.5788   -0.7500    0.0000 C   0  0  0  0  0  0  0  0  0  0  0  0
   27.2798    0.0000    0.0000 C   0  0  0  0  0  0  0  0  0  0  0  0
   25.9808   -0.7500    0.0000 C   0  0  0  0  0  0  0  0  0  0  0  0
   24.6817    0.0000    0.0000 C   0  0  0  0  0  0  0  0  0  0  0  0
   23.3827   -0.7500    0.0000 C   0  0  0  0  0  0  0  0  0  0  0  0
   22.0836    0.0000    0.0000 C   0  0  0  0  0  0  0  0  0  0  0  0
   20.7846   -0.7500    0.0000 C   0  0  0  0  0  0  0  0  0  0  0  0
   19.4856    0.0000    0.0000 C   0  0  0  0  0  0  0  0  0  0  0  0
   18.1865   -0.7500    0.0000 C   0  0  0  0  0  0  0  0  0  0  0  0
   16.8875    0.0000    0.0000 C   0  0  0  0  0  0  0  0  0  0  0  0
   15.5885   -0.7500    0.0000 C   0  0  0  0  0  0  0  0  0  0  0  0
   14.2894    0.0000    0.0000 C   0  0  0  0  0  0  0  0  0  0  0  0
   12.9904   -0.7500    0.0000 C   0  0  0  0  0  0  0  0  0  0  0  0
   11.6913    0.0000    0.0000 C   0  0  0  0  0  0  0  0  0  0  0  0
   10.3923   -0.7500    0.0000 C   0  0  0  0  0  0  0  0  0  0  0  0
    9.0933    0.0000    0.0000 C   0  0  0  0  0  0  0  0  0  0  0  0
    7.7942   -0.7500    0.0000 C   0  0  0  0  0  0  0  0  0  0  0  0
    6.4952    0.0000    0.0000 C   0  0  0  0  0  0  0  0  0  0  0  0
    5.1962   -0.7500    0.0000 C   0  0  0  0  0  0  0  0  0  0  0  0
    3.8971    0.0000    0.0000 C   0  0  0  0  0  0  0  0  0  0  0  0
    2.5981   -0.7500    0.0000 C   0  0  0  0  0  0  0  0  0  0  0  0
    1.2990    0.0000    0.0000 C   0  0  0  0  0  0  0  0  0  0  0  0
    0.0000   -0.7500    0.0000 C   0  0  0  0  0  0  0  0  0  0  0  0
  1  2  1  0  0  0  0
  2  3  1  0  0  0  0
  3  4  1  0  0  0  0
  4  5  1  0  0  0  0
  5  6  1  0  0  0  0
  6  7  1  0  0  0  0
  7  8  1  0  0  0  0
  8  9  1  0  0  0  0
  9 10  1  0  0  0  0
 10 11  1  0  0  0  0
 11 12  1  0  0  0  0
 12 13  1  0  0  0  0
 13 14  1  0  0  0  0
 14 15  1  0  0  0  0
 15 16  1  0  0  0  0
 16 17  1  0  0  0  0
 17 18  1  0  0  0  0
 18 19  1  0  0  0  0
 19 20  1  0  0  0  0
 20 21  1  0  0  0  0
 21 22  1  0  0  0  0
 22 23  1  0  0  0  0
 23 24  1  0  0  0  0
 24 25  1  0  0  0  0
 25 26  1  0  0  0  0
 26 27  1  0  0  0  0
 27 28  1  0  0  0  0
 28 29  1  0  0  0  0
 29 30  1  0  0  0  0
 30 31  1  0  0  0  0
 31 32  1  0  0  0  0
 32 33  1  0  0  0  0
M  END
