GDG1223 anchored core
Actelion Java MolfileCreator 1.0

 83100  0  0  0  0  0  0  0  0999 V2000
   -0.9703   -0.6910    0.0000 N   0  0  0  0  0  0  0  0  0  0  0  0
   -1.7770    2.1176    0.0000 N   0  0  0  0  0  0  0  0  0  0  0  0
    0.5834   -0.1528    0.0000 B   0  0  0  0  0  0  0  0  0  0  0  0
    1.8263   -1.2292    0.0000 N   0  0  0  0  0  0  0  0  0  0  0  0
   -3.6570    3.6156    0.0000 C   0  0  0  0  0  0  0  0  0  0  0  0
   -2.8842    3.8916    0.0000 C   0  0  0  0  0  0  0  0  0  0  0  0
   -2.2770    3.3534    0.0000 C   0  0  0  0  0  0  0  0  0  0  0  0
   -2.4012    2.5254    0.0000 C   0  0  0  0  0  0  0  0  0  0  0  0
   -3.2016    2.2908    0.0000 C   0  0  0  0  0  0  0  0  0  0  0  0
   -3.8088    2.8428    0.0000 C   0  0  0  0  0  0  0  0  0  0  0  0
   -1.4904    3.5604    0.0000 C   0  0  0  0  0  0  0  0  0  0  0  0
   -0.8832    4.1262    0.0000 C   0  0  0  0  0  0  0  0  0  0  0  0
   -0.1380    3.9054    0.0000 C   0  0  0  0  0  0  0  0  0  0  0  0
    0.0828    3.0912    0.0000 C   0  0  0  0  0  0  0  0  0  0  0  0
   -0.5244    2.5254    0.0000 C   0  0  0  0  0  0  0  0  0  0  0  0
   -1.3386    2.7324    0.0000 C   0  0  0  0  0  0  0  0  0  0  0  0
   -1.2558    1.4628    0.0000 C   0  0  0  0  0  0  0  0  0  0  0  0
   -0.5106    1.6974    0.0000 C   0  0  0  0  0  0  0  0  0  0  0  0
    0.1104    1.1592    0.0000 C   0  0  0  0  0  0  0  0  0  0  0  0
   -0.0414    0.3588    0.0000 C   0  0  0  0  0  0  0  0  0  0  0  0
   -0.8004    0.0966    0.0000 C   0  0  0  0  0  0  0  0  0  0  0  0
   -1.3938    0.6762    0.0000 C   0  0  0  0  0  0  0  0  0  0  0  0
   -2.0424    0.1380    0.0000 C   0  0  0  0  0  0  0  0  0  0  0  0
   -1.8630   -0.6762    0.0000 C   0  0  0  0  0  0  0  0  0  0  0  0
   -2.8566    0.4002    0.0000 C   0  0  0  0  0  0  0  0  0  0  0  0
   -3.0498    1.1316    0.2500 C   0  0  0  0  0  0  0  0  0  0  0  0
   -3.8226    1.3248    0.4500 C   0  0  0  0  0  0  0  0  0  0  0  0
   -4.4022    0.7590    0.5500 C   0  0  0  0  0  0  0  0  0  0  0  0
   -4.2090   -0.0138    0.3500 C   0  0  0  0  0  0  0  0  0  0  0  0
   -3.4362   -0.2484    0.1000 C   0  0  0  0  0  0  0  0  0  0  0  0
   -2.2494   -1.2558    0.0000 C   0  0  0  0  0  0  0  0  0  0  0  0
   -3.0636   -1.2006   -0.2500 C   0  0  0  0  0  0  0  0  0  0  0  0
   -3.5604   -1.8492   -0.4500 C   0  0  0  0  0  0  0  0  0  0  0  0
   -3.2568   -2.6220   -0.5500 C   0  0  0  0  0  0  0  0  0  0  0  0
   -2.4426   -2.7048   -0.3500 C   0  0  0  0  0  0  0  0  0  0  0  0
   -1.9458   -2.0700   -0.1000 C   0  0  0  0  0  0  0  0  0  0  0  0
   -0.3450   -1.2282    0.0000 C   0  0  0  0  0  0  0  0  0  0  0  0
    0.4554   -0.9108    0.0000 C   0  0  0  0  0  0  0  0  0  0  0  0
    1.0626   -1.4628    0.0000 C   0  0  0  0  0  0  0  0  0  0  0  0
    0.9108   -2.2632    0.0000 C   0  0  0  0  0  0  0  0  0  0  0  0
    0.1104   -2.5530    0.0000 C   0  0  0  0  0  0  0  0  0  0  0  0
   -0.4968   -2.0286    0.0000 C   0  0  0  0  0  0  0  0  0  0  0  0
    1.3524    0.1242    0.0000 C   0  0  0  0  0  0  0  0  0  0  0  0
    1.4766    0.9384    0.0000 C   0  0  0  0  0  0  0  0  0  0  0  0
    2.2356    1.1730    0.0000 C   0  0  0  0  0  0  0  0  0  0  0  0
    2.8842    0.6624    0.0000 C   0  0  0  0  0  0  0  0  0  0  0  0
    2.7600   -0.1518    0.0000 C   0  0  0  0  0  0  0  0  0  0  0  0
    1.9458   -0.4140    0.0000 C   0  0  0  0  0  0  0  0  0  0  0  0
    2.4012   -1.7526    0.0000 C   0  0  0  0  0  0  0  0  0  0  0  0
    3.1188   -1.4766    0.0000 C   0  0  0  0  0  0  0  0  0  0  0  0
    3.8226   -2.0286    0.0000 C   0  0  0  0  0  0  0  0  0  0  0  0
    3.6708   -2.8152    0.0000 C   0  0  0  0  0  0  0  0  0  0  0  0
    2.8980   -3.0912    0.0000 C   0  0  0  0  0  0  0  0  0  0  0  0
    2.2770   -2.5668    0.0000 C   0  0  0  0  0  0  0  0  0  0  0  0
    1.4628   -3.0222    0.0000 C   0  0  0  0  0  0  0  0  0  0  0  0
    0.6900   -3.5604    0.3900 C   0  0  0  0  0  0  0  0  0  0  0  0
   -0.0414   -3.2430    0.1600 C   0  0  0  0  0  0  0  0  0  0  0  0
   -0.7176   -3.6984    0.4900 C   0  0  0  0  0  0  0  0  0  0  0  0
   -0.6486   -4.5540    1.1100 C   0  0  0  0  0  0  0  0  0  0  0  0
    0.1104   -4.8576    1.3300 C   0  0  0  0  0  0  0  0  0  0  0  0
    0.7866   -4.3884    0.9900 C   0  0  0  0  0  0  0  0  0  0  0  0
    1.9734   -3.7950    0.5600 C   0  0  0  0  0  0  0  0  0  0  0  0
    2.8014   -3.7812    0.5500 C   0  0  0  0  0  0  0  0  0  0  0  0
    3.2154   -4.4850    1.0600 C   0  0  0  0  0  0  0  0  0  0  0  0
    2.7876   -5.2164    1.5900 C   0  0  0  0  0  0  0  0  0  0  0  0
    1.9320   -5.2164    1.5900 C   0  0  0  0  0  0  0  0  0  0  0  0
    1.5870   -4.4988    1.0700 C   0  0  0  0  0  0  0  0  0  0  0  0
   -4.2642    4.1814    0.0000 C   0  0  0  0  0  0  0  0  0  0  0  0
   -4.8714    4.7058    0.5500 C   0  0  0  0  0  0  0  0  0  0  0  0
   -4.1124    4.9680   -0.5500 C   0  0  0  0  0  0  0  0  0  0  0  0
   -5.0370    3.8916    0.2000 C   0  0  0  0  0  0  0  0  0  0  0  0
    0.4554    4.4160    0.0000 C   0  0  0  0  0  0  0  0  0  0  0  0
    0.2898    5.2026   -0.5500 C   0  0  0  0  0  0  0  0  0  0  0  0
    1.0626    5.0094    0.5500 C   0  0  0  0  0  0  0  0  0  0  0  0
    1.2558    4.1952   -0.2000 C   0  0  0  0  0  0  0  0  0  0  0  0
    2.4150    1.9872    0.0000 C   0  0  0  0  0  0  0  0  0  0  0  0
    1.8078    2.4978    0.5500 C   0  0  0  0  0  0  0  0  0  0  0  0
    2.5668    2.7738   -0.5500 C   0  0  0  0  0  0  0  0  0  0  0  0
    3.1740    2.2356    0.2000 C   0  0  0  0  0  0  0  0  0  0  0  0
    4.3056   -3.3396    0.0000 C   0  0  0  0  0  0  0  0  0  0  0  0
    5.0370   -3.0912   -0.5500 C   0  0  0  0  0  0  0  0  0  0  0  0
    4.8714   -3.8502    0.5500 C   0  0  0  0  0  0  0  0  0  0  0  0
    4.1124   -4.1676   -0.2000 C   0  0  0  0  0  0  0  0  0  0  0  0
  5  6  2  0  0  0  0
  6  7  1  0  0  0  0
  7  8  2  0  0  0  0
  8  9  1  0  0  0  0
  9 10  2  0  0  0  0
 10  5  1  0  0  0  0
 11 12  2  0  0  0  0
 12 13  1  0  0  0  0
 13 14  2  0  0  0  0
 14 15  1  0  0  0  0
 15 16  2  0  0  0  0
 16 11  1  0  0  0  0
 17 18  2  0  0  0  0
 18 19  1  0  0  0  0
 19 20  2  0  0  0  0
 20 21  1  0  0  0  0
 21 22  2  0  0  0  0
 22 17  1  0  0  0  0
 25 26  2  0  0  0  0
 26 27  1  0  0  0  0
 27 28  2  0  0  0  0
 28 29  1  0  0  0  0
 29 30  2  0  0  0  0
 30 25  1  0  0  0  0
 31 32  2  0  0  0  0
 32 33  1  0  0  0  0
 33 34  2  0  0  0  0
 34 35  1  0  0  0  0
 35 36  2  0  0  0  0
 36 31  1  0  0  0  0
 37 38  2  0  0  0  0
 38 39  1  0  0  0  0
 39 40  2  0  0  0  0
 40 41  1  0  0  0  0
 41 42  2  0  0  0  0
 42 37  1  0  0  0  0
 43 44  2  0  0  0  0
 44 45  1  0  0  0  0
 45 46  2  0  0  0  0
 46 47  1  0  0  0  0
 47 48  2  0  0  0  0
 48 43  1  0  0  0  0
 49 50  2  0  0  0  0
 50 51  1  0  0  0  0
 51 52  2  0  0  0  0
 52 53  1  0  0  0  0
 53 54  2  0  0  0  0
 54 49  1  0  0  0  0
 56 57  2  0  0  0  0
 57 58  1  0  0  0  0
 58 59  2  0  0  0  0
 59 60  1  0  0  0  0
 60 61  2  0  0  0  0
 61 56  1  0  0  0  0
 62 63  2  0  0  0  0
 63 64  1  0  0  0  0
 64 65  2  0  0  0  0
 65 66  1  0  0  0  0
 66 67  2  0  0  0  0
 67 62  1  0  0  0  0
  7 11  1  0  0  0  0
  2  8  1  0  0  0  0
  2 16  1  0  0  0  0
  2 17  1  0  0  0  0
 15 18  1  0  0  0  0
 22 23  1  0  0  0  0
 23 24  2  0  0  0  0
 24  1  1  0  0  0  0
  1 21  1  0  0  0  0
 23 25  1  0  0  0  0
 24 31  1  0  0  0  0
  1 37  1  0  0  0  0
 20  3  1  0  0  0  0
  3 38  1  0  0  0  0
  3 43  1  0  0  0  0
 48  4  1  0  0  0  0
  4 39  1  0  0  0  0
  4 49  1  0  0  0  0
 47 50  1  0  0  0  0
 40 55  1  0  0  0  0
 55 54  1  0  0  0  0
 55 56  1  0  0  0  0
 55 62  1  0  0  0  0
 61 67  1  0  0  0  0
  5 68  1  0  0  0  0
 68 69  1  0  0  0  0
 68 70  1  0  0  0  0
 68 71  1  0  0  0  0
 13 72  1  0  0  0  0
 72 73  1  0  0  0  0
 72 74  1  0  0  0  0
 72 75  1  0  0  0  0
 45 76  1  0  0  0  0
 76 77  1  0  0  0  0
 76 78  1  0  0  0  0
 76 79  1  0  0  0  0
 52 80  1  0  0  0  0
 80 81  1  0  0  0  0
 80 82  1  0  0  0  0
 80 83  1  0  0  0  0
M  END

$$$$
