GD163.sdf
  ChemDraw12022513232D

 80 97  0  0  0  0  0  0  0  0999 V2000
    1.0719    0.2739    0.0000 C   0  0  0  0  0  0  0  0  0  0  0  0
    1.0719   -0.5509    0.0000 C   0  0  0  0  0  0  0  0  0  0  0  0
    0.3577   -0.9633    0.0000 C   0  0  0  0  0  0  0  0  0  0  0  0
   -0.3566   -0.5509    0.0000 C   0  0  0  0  0  0  0  0  0  0  0  0
   -0.3566    0.2739    0.0000 C   0  0  0  0  0  0  0  0  0  0  0  0
    0.3577    0.6862    0.0000 C   0  0  0  0  0  0  0  0  0  0  0  0
    1.7862    0.6862    0.0000 N   0  0  0  0  0  0  0  0  0  0  0  0
   -1.0709    0.6862    0.0000 O   0  0  0  0  0  0  0  0  0  0  0  0
    1.7862    1.5110    0.0000 C   0  0  0  0  0  0  0  0  0  0  0  0
    2.5004    1.9234    0.0000 C   0  0  0  0  0  0  0  0  0  0  0  0
    3.0142    1.2782    0.0000 C   0  0  0  0  0  0  0  0  0  0  0  0
    2.6018    0.5639    0.0000 C   0  0  0  0  0  0  0  0  0  0  0  0
    3.8390    1.2782    0.0000 C   0  0  0  0  0  0  0  0  0  0  0  0
    4.2513    0.5639    0.0000 C   0  0  0  0  0  0  0  0  0  0  0  0
    3.8390   -0.1503    0.0000 C   0  0  0  0  0  0  0  0  0  0  0  0
    3.0142   -0.1503    0.0000 C   0  0  0  0  0  0  0  0  0  0  0  0
    1.0719    1.9234    0.0000 C   0  0  0  0  0  0  0  0  0  0  0  0
    1.0719    2.7481    0.0000 C   0  0  0  0  0  0  0  0  0  0  0  0
    1.7862    3.1605    0.0000 C   0  0  0  0  0  0  0  0  0  0  0  0
    2.5004    2.7481    0.0000 C   0  0  0  0  0  0  0  0  0  0  0  0
   -1.7851    1.9234    0.0000 C   0  0  0  0  0  0  0  0  0  0  0  0
   -1.0709    1.5110    0.0000 C   0  0  0  0  0  0  0  0  0  0  0  0
   -1.7851    2.7481    0.0000 C   0  0  0  0  0  0  0  0  0  0  0  0
   -1.0709    3.1605    0.0000 C   0  0  0  0  0  0  0  0  0  0  0  0
   -0.3566    2.7481    0.0000 C   0  0  0  0  0  0  0  0  0  0  0  0
   -0.3566    1.9234    0.0000 C   0  0  0  0  0  0  0  0  0  0  0  0
    0.3577   -3.3320    0.0000 C   0  0  0  0  0  0  0  0  0  0  0  0
   -0.3566   -3.7444    0.0000 C   0  0  0  0  0  0  0  0  0  0  0  0
   -0.3566   -4.5691    0.0000 C   0  0  0  0  0  0  0  0  0  0  0  0
    0.3577   -4.9815    0.0000 C   0  0  0  0  0  0  0  0  0  0  0  0
    1.0719   -4.5691    0.0000 C   0  0  0  0  0  0  0  0  0  0  0  0
    1.0719   -3.7444    0.0000 C   0  0  0  0  0  0  0  0  0  0  0  0
    0.3577    1.5110    0.0000 B   0  0  0  0  0  0  0  0  0  0  0  0
    1.7862   -3.3320    0.0000 C   0  0  0  0  0  0  0  0  0  0  0  0
    1.7862   -2.5072    0.0000 C   0  0  0  0  0  0  0  0  0  0  0  0
    2.5004   -2.0948    0.0000 C   0  0  0  0  0  0  0  0  0  0  0  0
    3.2147   -2.5072    0.0000 C   0  0  0  0  0  0  0  0  0  0  0  0
    3.2147   -3.3320    0.0000 C   0  0  0  0  0  0  0  0  0  0  0  0
    2.5004   -3.7444    0.0000 C   0  0  0  0  0  0  0  0  0  0  0  0
    3.9290   -3.7444    0.0000 C   0  0  0  0  0  0  0  0  0  0  0  0
    3.9290   -4.5691    0.0000 C   0  0  0  0  0  0  0  0  0  0  0  0
    3.2147   -4.9815    0.0000 C   0  0  0  0  0  0  0  0  0  0  0  0
    2.5004   -4.5691    0.0000 C   0  0  0  0  0  0  0  0  0  0  0  0
    1.0719   -2.0948    0.0000 C   0  0  0  0  0  0  0  0  0  0  0  0
    1.0719   -1.2701    0.0000 C   0  0  0  0  0  0  0  0  0  0  0  0
    1.7862   -0.8577    0.0000 C   0  0  0  0  0  0  0  0  0  0  0  0
    2.5004   -1.2701    0.0000 C   0  0  0  0  0  0  0  0  0  0  0  0
    3.9290   -2.0948    0.0000 C   0  0  0  0  0  0  0  0  0  0  0  0
    4.6432   -2.5072    0.0000 C   0  0  0  0  0  0  0  0  0  0  0  0
    5.3575   -2.0948    0.0000 C   0  0  0  0  0  0  0  0  0  0  0  0
    5.3575   -1.2701    0.0000 C   0  0  0  0  0  0  0  0  0  0  0  0
    4.6432   -0.8577    0.0000 C   0  0  0  0  0  0  0  0  0  0  0  0
    3.9290   -1.2701    0.0000 C   0  0  0  0  0  0  0  0  0  0  0  0
    1.6147    3.9672    0.0000 N   0  0  0  0  0  0  0  0  0  0  0  0
    2.4227    4.1327    0.0000 C   0  0  0  0  0  0  0  0  0  0  0  0
    2.9075    3.4654    0.0000 C   0  0  0  0  0  0  0  0  0  0  0  0
    0.4590    3.3000    0.0000 C   0  0  0  0  0  0  0  0  0  0  0  0
    0.7945    4.0535    0.0000 C   0  0  0  0  0  0  0  0  0  0  0  0
    2.7582    4.8861    0.0000 C   0  0  0  0  0  0  0  0  0  0  0  0
    3.5784    4.9724    0.0000 C   0  0  0  0  0  0  0  0  0  0  0  0
    4.0632    4.3051    0.0000 C   0  0  0  0  0  0  0  0  0  0  0  0
    3.7277    3.5517    0.0000 C   0  0  0  0  0  0  0  0  0  0  0  0
   -0.3612    3.2138    0.0000 C   0  0  0  0  0  0  0  0  0  0  0  0
   -0.8460    3.8810    0.0000 C   0  0  0  0  0  0  0  0  0  0  0  0
   -0.5106    4.6345    0.0000 C   0  0  0  0  0  0  0  0  0  0  0  0
    0.3097    4.7207    0.0000 C   0  0  0  0  0  0  0  0  0  0  0  0
   -2.4996    3.1606    0.0000 C   0  0  0  0  0  0  0  0  0  0  0  0
   -2.4996    3.9856    0.0000 C   0  0  0  0  0  0  0  0  0  0  0  0
   -3.2141    4.3981    0.0000 C   0  0  0  0  0  0  0  0  0  0  0  0
   -3.9285    3.9856    0.0000 C   0  0  0  0  0  0  0  0  0  0  0  0
   -3.9285    3.1606    0.0000 C   0  0  0  0  0  0  0  0  0  0  0  0
   -3.2141    2.7481    0.0000 C   0  0  0  0  0  0  0  0  0  0  0  0
   -4.6430    4.3981    0.0000 C   0  0  0  0  0  0  0  0  0  0  0  0
   -5.3575    3.9856    0.0000 C   0  0  0  0  0  0  0  0  0  0  0  0
   -5.3575    3.1606    0.0000 C   0  0  0  0  0  0  0  0  0  0  0  0
   -4.6430    2.7481    0.0000 C   0  0  0  0  0  0  0  0  0  0  0  0
   -5.2264    4.9815    0.0000 C   0  0  0  0  0  0  0  0  0  0  0  0
   -3.9285    4.8106    0.0000 C   0  0  0  0  0  0  0  0  0  0  0  0
   -5.2264    2.1648    0.0000 C   0  0  0  0  0  0  0  0  0  0  0  0
   -4.0596    2.1648    0.0000 C   0  0  0  0  0  0  0  0  0  0  0  0
  1  2  2  0        0
  2  3  1  0        0
  3  4  2  0        0
  4  5  1  0        0
  5  6  2  0        0
  6  1  1  0        0
  1  7  1  0        0
  5  8  1  0        0
  7  9  1  0        0
  9 10  2  0        0
 11 12  2  0        0
 12  7  1  0        0
 11 13  1  0        0
 13 14  2  0        0
 14 15  1  0        0
 15 16  2  0        0
 16 12  1  0        0
  9 17  1  0        0
 17 18  2  0        0
 18 19  1  0        0
 19 20  2  0        0
 20 10  1  0        0
 21 22  2  0        0
 22  8  1  0        0
 21 23  1  0        0
 23 24  2  0        0
 24 25  1  0        0
 25 26  2  0        0
 26 22  1  0        0
 27 28  2  0        0
 28 29  1  0        0
 29 30  2  0        0
 30 31  1  0        0
 31 32  2  0        0
 32 27  1  0        0
  6 33  1  0        0
 27  3  1  0        0
 34 35  2  0        0
 35 36  1  0        0
 36 37  2  0        0
 37 38  1  0        0
 38 39  2  0        0
 39 34  1  0        0
 38 40  1  0        0
 40 41  2  0        0
 41 42  1  0        0
 42 43  2  0        0
 43 39  1  0        0
 35 44  1  0        0
 44 45  2  0        0
 45 46  1  0        0
 46 47  2  0        0
 47 36  1  0        0
 37 48  1  0        0
 48 49  2  0        0
 49 50  1  0        0
 50 51  2  0        0
 51 52  1  0        0
 52 53  2  0        0
 53 48  1  0        0
 34 32  1  0        0
 33 17  1  0        0
 33 26  1  0        0
 10 11  1  0        0
 19 54  1  0        0
 54 55  1  0        0
 55 56  2  0        0
 56 20  1  0        0
 18 57  1  0        0
 57 58  2  0        0
 58 54  1  0        0
 55 59  1  0        0
 59 60  2  0        0
 60 61  1  0        0
 61 62  2  0        0
 62 56  1  0        0
 57 63  1  0        0
 63 64  2  0        0
 64 65  1  0        0
 65 66  2  0        0
 66 58  1  0        0
 23 67  1  0        0
 67 68  2  0        0
 68 69  1  0        0
 69 70  2  0        0
 70 71  1  0        0
 71 72  2  0        0
 72 67  1  0        0
 70 73  1  0        0
 73 74  1  0        0
 74 75  1  0        0
 75 76  1  0        0
 76 71  1  0        0
 73 77  1  0        0
 73 78  1  0        0
 76 79  1  0        0
 76 80  1  0        0
M  END
$$$$
