GDG1223 anchored core
Actelion Java MolfileCreator 1.0

 83100  0  0  0  0  0  0  0  0999 V2000
   -1.6966   -1.2082    0.0000 N   0  0  0  0  0  0  0  0  0  0  0  0
   -3.1071    3.7026    0.0000 N   0  0  0  0  0  0  0  0  0  0  0  0
    1.0201   -0.2672    0.0000 B   0  0  0  0  0  0  0  0  0  0  0  0
    3.1933   -2.1492    0.0000 N   0  0  0  0  0  0  0  0  0  0  0  0
   -6.3942    6.3218    0.0000 C   0  0  0  0  0  0  0  0  0  0  0  0
   -5.0430    6.8044    0.0000 C   0  0  0  0  0  0  0  0  0  0  0  0
   -3.9813    5.8634    0.0000 C   0  0  0  0  0  0  0  0  0  0  0  0
   -4.1985    4.4156    0.0000 C   0  0  0  0  0  0  0  0  0  0  0  0
   -5.5980    4.0054    0.0000 C   0  0  0  0  0  0  0  0  0  0  0  0
   -6.6596    4.9706    0.0000 C   0  0  0  0  0  0  0  0  0  0  0  0
   -2.6059    6.2253    0.0000 C   0  0  0  0  0  0  0  0  0  0  0  0
   -1.5443    7.2146    0.0000 C   0  0  0  0  0  0  0  0  0  0  0  0
   -0.2413    6.8285    0.0000 C   0  0  0  0  0  0  0  0  0  0  0  0
    0.1448    5.4049    0.0000 C   0  0  0  0  0  0  0  0  0  0  0  0
   -0.9169    4.4156    0.0000 C   0  0  0  0  0  0  0  0  0  0  0  0
   -2.3405    4.7776    0.0000 C   0  0  0  0  0  0  0  0  0  0  0  0
   -2.1958    2.5577    0.0000 C   0  0  0  0  0  0  0  0  0  0  0  0
   -0.8928    2.9679    0.0000 C   0  0  0  0  0  0  0  0  0  0  0  0
    0.1930    2.0268    0.0000 C   0  0  0  0  0  0  0  0  0  0  0  0
   -0.0724    0.6274    0.0000 C   0  0  0  0  0  0  0  0  0  0  0  0
   -1.3995    0.1689    0.0000 C   0  0  0  0  0  0  0  0  0  0  0  0
   -2.4370    1.1823    0.0000 C   0  0  0  0  0  0  0  0  0  0  0  0
   -3.5711    0.2413    0.0000 C   0  0  0  0  0  0  0  0  0  0  0  0
   -3.2574   -1.1823    0.0000 C   0  0  0  0  0  0  0  0  0  0  0  0
   -4.9947    0.6997    0.0000 C   0  0  0  0  0  0  0  0  0  0  0  0
   -5.3325    1.9786    0.4371 C   0  0  0  0  0  0  0  0  0  0  0  0
   -6.6838    2.3164    0.7868 C   0  0  0  0  0  0  0  0  0  0  0  0
   -7.6972    1.3271    0.9617 C   0  0  0  0  0  0  0  0  0  0  0  0
   -7.3594   -0.0241    0.6120 C   0  0  0  0  0  0  0  0  0  0  0  0
   -6.0082   -0.4343    0.1748 C   0  0  0  0  0  0  0  0  0  0  0  0
   -3.9331   -2.1958    0.0000 C   0  0  0  0  0  0  0  0  0  0  0  0
   -5.3567   -2.0992   -0.4371 C   0  0  0  0  0  0  0  0  0  0  0  0
   -6.2253   -3.2333   -0.7868 C   0  0  0  0  0  0  0  0  0  0  0  0
   -5.6945   -4.5845   -0.9617 C   0  0  0  0  0  0  0  0  0  0  0  0
   -4.2709   -4.7293   -0.6120 C   0  0  0  0  0  0  0  0  0  0  0  0
   -3.4022   -3.6194   -0.1748 C   0  0  0  0  0  0  0  0  0  0  0  0
   -0.6032   -2.1475    0.0000 C   0  0  0  0  0  0  0  0  0  0  0  0
    0.7963   -1.5925    0.0000 C   0  0  0  0  0  0  0  0  0  0  0  0
    1.8579   -2.5577    0.0000 C   0  0  0  0  0  0  0  0  0  0  0  0
    1.5925   -3.9572    0.0000 C   0  0  0  0  0  0  0  0  0  0  0  0
    0.1930   -4.4639    0.0000 C   0  0  0  0  0  0  0  0  0  0  0  0
   -0.8686   -3.5470    0.0000 C   0  0  0  0  0  0  0  0  0  0  0  0
    2.3647    0.2172    0.0000 C   0  0  0  0  0  0  0  0  0  0  0  0
    2.5818    1.6408    0.0000 C   0  0  0  0  0  0  0  0  0  0  0  0
    3.9089    2.0510    0.0000 C   0  0  0  0  0  0  0  0  0  0  0  0
    5.0430    1.1582    0.0000 C   0  0  0  0  0  0  0  0  0  0  0  0
    4.8258   -0.2654    0.0000 C   0  0  0  0  0  0  0  0  0  0  0  0
    3.4022   -0.7239    0.0000 C   0  0  0  0  0  0  0  0  0  0  0  0
    4.1985   -3.0644    0.0000 C   0  0  0  0  0  0  0  0  0  0  0  0
    5.4532   -2.5818    0.0000 C   0  0  0  0  0  0  0  0  0  0  0  0
    6.6838   -3.5470    0.0000 C   0  0  0  0  0  0  0  0  0  0  0  0
    6.4184   -4.9223    0.0000 C   0  0  0  0  0  0  0  0  0  0  0  0
    5.0671   -5.4049    0.0000 C   0  0  0  0  0  0  0  0  0  0  0  0
    3.9813   -4.4880    0.0000 C   0  0  0  0  0  0  0  0  0  0  0  0
    2.5577   -5.2843    0.0000 C   0  0  0  0  0  0  0  0  0  0  0  0
    1.2065   -6.2253    0.6819 C   0  0  0  0  0  0  0  0  0  0  0  0
   -0.0724   -5.6703    0.2798 C   0  0  0  0  0  0  0  0  0  0  0  0
   -1.2547   -6.4666    0.8568 C   0  0  0  0  0  0  0  0  0  0  0  0
   -1.1341   -7.9626    1.9408 C   0  0  0  0  0  0  0  0  0  0  0  0
    0.1930   -8.4935    2.3255 C   0  0  0  0  0  0  0  0  0  0  0  0
    1.3754   -7.6731    1.7310 C   0  0  0  0  0  0  0  0  0  0  0  0
    3.4505   -6.6355    0.9792 C   0  0  0  0  0  0  0  0  0  0  0  0
    4.8982   -6.6114    0.9617 C   0  0  0  0  0  0  0  0  0  0  0  0
    5.6221   -7.8420    1.8534 C   0  0  0  0  0  0  0  0  0  0  0  0
    4.8741   -9.1208    2.7801 C   0  0  0  0  0  0  0  0  0  0  0  0
    3.3781   -9.1208    2.7801 C   0  0  0  0  0  0  0  0  0  0  0  0
    2.7749   -7.8661    1.8709 C   0  0  0  0  0  0  0  0  0  0  0  0
   -7.4559    7.3111    0.0000 C   0  0  0  0  0  0  0  0  0  0  0  0
   -8.5176    8.2280    0.9617 C   0  0  0  0  0  0  0  0  0  0  0  0
   -7.1905    8.6865   -0.9617 C   0  0  0  0  0  0  0  0  0  0  0  0
   -8.8071    6.8044    0.3497 C   0  0  0  0  0  0  0  0  0  0  0  0
    0.7963    7.7213    0.0000 C   0  0  0  0  0  0  0  0  0  0  0  0
    0.5067    9.0967   -0.9617 C   0  0  0  0  0  0  0  0  0  0  0  0
    1.8579    8.7589    0.9617 C   0  0  0  0  0  0  0  0  0  0  0  0
    2.1958    7.3353   -0.3497 C   0  0  0  0  0  0  0  0  0  0  0  0
    4.2226    3.4746    0.0000 C   0  0  0  0  0  0  0  0  0  0  0  0
    3.1609    4.3674    0.9617 C   0  0  0  0  0  0  0  0  0  0  0  0
    4.4880    4.8500   -0.9617 C   0  0  0  0  0  0  0  0  0  0  0  0
    5.5497    3.9089    0.3497 C   0  0  0  0  0  0  0  0  0  0  0  0
    7.5283   -5.8393    0.0000 C   0  0  0  0  0  0  0  0  0  0  0  0
    8.8071   -5.4049   -0.9617 C   0  0  0  0  0  0  0  0  0  0  0  0
    8.5176   -6.7320    0.9617 C   0  0  0  0  0  0  0  0  0  0  0  0
    7.1905   -7.2870   -0.3497 C   0  0  0  0  0  0  0  0  0  0  0  0
  5  6  2  0  0  0  0
  6  7  1  0  0  0  0
  7  8  2  0  0  0  0
  8  9  1  0  0  0  0
  9 10  2  0  0  0  0
 10  5  1  0  0  0  0
 11 12  2  0  0  0  0
 12 13  1  0  0  0  0
 13 14  2  0  0  0  0
 14 15  1  0  0  0  0
 15 16  2  0  0  0  0
 16 11  1  0  0  0  0
 17 18  2  0  0  0  0
 18 19  1  0  0  0  0
 19 20  2  0  0  0  0
 20 21  1  0  0  0  0
 21 22  2  0  0  0  0
 22 17  1  0  0  0  0
 25 26  2  0  0  0  0
 26 27  1  0  0  0  0
 27 28  2  0  0  0  0
 28 29  1  0  0  0  0
 29 30  2  0  0  0  0
 30 25  1  0  0  0  0
 31 32  2  0  0  0  0
 32 33  1  0  0  0  0
 33 34  2  0  0  0  0
 34 35  1  0  0  0  0
 35 36  2  0  0  0  0
 36 31  1  0  0  0  0
 37 38  2  0  0  0  0
 38 39  1  0  0  0  0
 39 40  2  0  0  0  0
 40 41  1  0  0  0  0
 41 42  2  0  0  0  0
 42 37  1  0  0  0  0
 43 44  2  0  0  0  0
 44 45  1  0  0  0  0
 45 46  2  0  0  0  0
 46 47  1  0  0  0  0
 47 48  2  0  0  0  0
 48 43  1  0  0  0  0
 49 50  2  0  0  0  0
 50 51  1  0  0  0  0
 51 52  2  0  0  0  0
 52 53  1  0  0  0  0
 53 54  2  0  0  0  0
 54 49  1  0  0  0  0
 56 57  2  0  0  0  0
 57 58  1  0  0  0  0
 58 59  2  0  0  0  0
 59 60  1  0  0  0  0
 60 61  2  0  0  0  0
 61 56  1  0  0  0  0
 62 63  2  0  0  0  0
 63 64  1  0  0  0  0
 64 65  2  0  0  0  0
 65 66  1  0  0  0  0
 66 67  2  0  0  0  0
 67 62  1  0  0  0  0
  7 11  1  0  0  0  0
  2  8  1  0  0  0  0
  2 16  1  0  0  0  0
  2 17  1  0  0  0  0
 15 18  1  0  0  0  0
 22 23  1  0  0  0  0
 23 24  2  0  0  0  0
 24  1  1  0  0  0  0
  1 21  1  0  0  0  0
 23 25  1  0  0  0  0
 24 31  1  0  0  0  0
  1 37  1  0  0  0  0
 20  3  1  0  0  0  0
  3 38  1  0  0  0  0
  3 43  1  0  0  0  0
 48  4  1  0  0  0  0
  4 39  1  0  0  0  0
  4 49  1  0  0  0  0
 47 50  1  0  0  0  0
 40 55  1  0  0  0  0
 55 54  1  0  0  0  0
 55 56  1  0  0  0  0
 55 62  1  0  0  0  0
 61 67  1  0  0  0  0
  5 68  1  0  0  0  0
 68 69  1  0  0  0  0
 68 70  1  0  0  0  0
 68 71  1  0  0  0  0
 13 72  1  0  0  0  0
 72 73  1  0  0  0  0
 72 74  1  0  0  0  0
 72 75  1  0  0  0  0
 45 76  1  0  0  0  0
 76 77  1  0  0  0  0
 76 78  1  0  0  0  0
 76 79  1  0  0  0  0
 52 80  1  0  0  0  0
 80 81  1  0  0  0  0
 80 82  1  0  0  0  0
 80 83  1  0  0  0  0
M  END

$$$$
