GDG1476 blind candidate attempt 0001
     RDKit          3D

167193  0  0  0  0  0  0  0  0999 V2000
   -1.4277    1.0775    0.0000 N   0  0  0  0  0  0  0  0  0900  0  0
    1.4203    1.0775    0.0000 N   0  0  0  0  0  0  0  0  0900  0  0
   -0.0037    1.8997    0.0000 B   0  0  0  0  0  0  0  0  0900  0  0
   -1.5003    3.2593   -3.3622 C   0  0  0  0  0  0  0  0  0  0  0  0
   -0.3612    3.1241   -2.5403 C   0  0  0  0  0  0  0  0  0  0  0  0
   -0.4747    2.3955   -1.3744 C   0  0  0  0  0  0  0  0  0  0  0  0
   -1.7242    1.9318   -1.0673 C   0  0  0  0  0  0  0  0  0  0  0  0
   -2.7689    1.7593   -1.9671 C   0  0  0  0  0  0  0  0  0  0  0  0
   -2.6630    2.5185   -3.1308 C   0  0  0  0  0  0  0  0  0  0  0  0
   -1.4491    4.1955   -4.4953 C   0  0  0  0  0  0  0  0  0  0  0  0
   -2.0513    3.9213   -5.7209 C   0  0  0  0  0  0  0  0  0  0  0  0
   -2.0456    4.8615   -6.7347 C   0  0  0  0  0  0  0  0  0  0  0  0
   -1.4397    6.0920   -6.5437 C   0  0  0  0  0  0  0  0  0  0  0  0
   -0.8263    6.3721   -5.3340 C   0  0  0  0  0  0  0  0  0  0  0  0
   -0.8292    5.4329   -4.3206 C   0  0  0  0  0  0  0  0  0  0  0  0
    2.8664    4.7981   -0.8431 C   0  0  0  0  0  0  0  0  0  0  0  0
    3.7006    3.7168   -1.2020 C   0  0  0  0  0  0  0  0  0  0  0  0
    3.3073    2.4344   -0.8593 C   0  0  0  0  0  0  0  0  0  0  0  0
    2.1283    2.4071   -0.1175 C   0  0  0  0  0  0  0  0  0  0  0  0
    1.1778    3.3723    0.1095 C   0  0  0  0  0  0  0  0  0  0  0  0
    1.6003    4.6486   -0.2594 C   0  0  0  0  0  0  0  0  0  0  0  0
    3.5065    6.0160   -1.3253 C   0  0  0  0  0  0  0  0  0  0  0  0
    4.6857    5.6770   -2.0052 C   0  0  0  0  0  0  0  0  0  0  0  0
    5.4968    6.6430   -2.5574 C   0  0  0  0  0  0  0  0  0  0  0  0
    5.1242    7.9738   -2.4240 C   0  0  0  0  0  0  0  0  0  0  0  0
    3.9587    8.3179   -1.7564 C   0  0  0  0  0  0  0  0  0  0  0  0
    3.1398    7.3465   -1.2027 C   0  0  0  0  0  0  0  0  0  0  0  0
    4.8151    3.6123   -3.4329 C   0  0  0  0  0  0  0  0  0  0  0  0
    5.9849    2.8954   -3.7211 C   0  0  0  0  0  0  0  0  0  0  0  0
    6.1380    2.2732   -4.9491 C   0  0  0  0  0  0  0  0  0  0  0  0
    5.1146    2.3781   -5.8773 C   0  0  0  0  0  0  0  0  0  0  0  0
    3.9603    3.0904   -5.5875 C   0  0  0  0  0  0  0  0  0  0  0  0
    3.8002    3.7158   -4.3585 C   0  0  0  0  0  0  0  0  0  0  0  0
    6.2166    3.6993   -1.5571 C   0  0  0  0  0  0  0  0  0  0  0  0
    6.8552    2.9468   -2.5560 C   0  0  0  0  0  0  0  0  0  0  0  0
    8.0950    2.3757   -2.3189 C   0  0  0  0  0  0  0  0  0  0  0  0
    8.6871    2.5680   -1.0809 C   0  0  0  0  0  0  0  0  0  0  0  0
    8.0596    3.3238   -0.1021 C   0  0  0  0  0  0  0  0  0  0  0  0
    6.8159    3.8985   -0.3331 C   0  0  0  0  0  0  0  0  0  0  0  0
   -3.5205    0.6481   -1.4409 C   0  0  0  0  0  0  0  0  0  0  0  0
   -2.8652    0.2744   -0.2453 C   0  0  0  0  0  0  0  0  0  0  0  0
   -3.3839   -0.7606    0.5328 C   0  0  0  0  0  0  0  0  0  0  0  0
   -4.4509   -1.4820    0.0230 C   0  0  0  0  0  0  0  0  0  0  0  0
   -5.0304   -1.1919   -1.2142 C   0  0  0  0  0  0  0  0  0  0  0  0
   -4.5867   -0.0870   -1.9320 C   0  0  0  0  0  0  0  0  0  0  0  0
   -6.0587   -2.0935   -1.7549 C   0  0  0  0  0  0  0  0  0  0  0  0
   -6.0194   -2.4663   -3.0971 C   0  0  0  0  0  0  0  0  0  0  0  0
   -6.9332   -3.3706   -3.6049 C   0  0  0  0  0  0  0  0  0  0  0  0
   -7.9059   -3.9136   -2.7824 C   0  0  0  0  0  0  0  0  0  0  0  0
   -7.9619   -3.5412   -1.4497 C   0  0  0  0  0  0  0  0  0  0  0  0
   -7.0453   -2.6412   -0.9387 C   0  0  0  0  0  0  0  0  0  0  0  0
    3.6736    1.0399   -1.0515 C   0  0  0  0  0  0  0  0  0  0  0  0
    4.8348    0.4158   -1.4632 C   0  0  0  0  0  0  0  0  0  0  0  0
    4.9825   -0.9552   -1.2526 C   0  0  0  0  0  0  0  0  0  0  0  0
    3.9973   -1.6611   -0.5658 C   0  0  0  0  0  0  0  0  0  0  0  0
    2.8359   -1.0493   -0.1053 C   0  0  0  0  0  0  0  0  0  0  0  0
    2.6347    0.2692   -0.4801 C   0  0  0  0  0  0  0  0  0  0  0  0
    6.2506   -1.6059   -1.6126 C   0  0  0  0  0  0  0  0  0  0  0  0
    6.8346   -2.5429   -0.7621 C   0  0  0  0  0  0  0  0  0  0  0  0
    8.0524   -3.1164   -1.0754 C   0  0  0  0  0  0  0  0  0  0  0  0
    8.7067   -2.7666   -2.2444 C   0  0  0  0  0  0  0  0  0  0  0  0
    8.1333   -1.8399   -3.0992 C   0  0  0  0  0  0  0  0  0  0  0  0
    6.9175   -1.2616   -2.7862 C   0  0  0  0  0  0  0  0  0  0  0  0
   -0.0492    1.3505    1.4196 C   0  0  0  0  0  0  0  0  0  0  0  0
    1.0771    0.5343    1.2477 C   0  0  0  0  0  0  0  0  0  0  0  0
    1.0105   -0.7971    1.5466 C   0  0  0  0  0  0  0  0  0  0  0  0
   -0.2284   -1.2162    2.1416 C   0  0  0  0  0  0  0  0  0  0  0  0
   -1.4226   -0.5573    1.8861 C   0  0  0  0  0  0  0  0  0  0  0  0
   -1.2442    0.7115    1.2877 C   0  0  0  0  0  0  0  0  0  0  0  0
   -3.6035   -0.3885    3.0307 C   0  0  0  0  0  0  0  0  0  0  0  0
   -3.7947   -1.2887    4.0912 C   0  0  0  0  0  0  0  0  0  0  0  0
   -4.3761   -0.8815    5.2795 C   0  0  0  0  0  0  0  0  0  0  0  0
   -4.7878    0.4361    5.3955 C   0  0  0  0  0  0  0  0  0  0  0  0
   -4.6670    1.3037    4.3256 C   0  0  0  0  0  0  0  0  0  0  0  0
   -4.0844    0.9076    3.1188 C   0  0  0  0  0  0  0  0  0  0  0  0
   -2.9040   -2.5280    2.3428 C   0  0  0  0  0  0  0  0  0  0  0  0
   -3.3765   -2.6127    3.6596 C   0  0  0  0  0  0  0  0  0  0  0  0
   -3.4410   -3.8347    4.3062 C   0  0  0  0  0  0  0  0  0  0  0  0
   -3.0392   -4.9684    3.6189 C   0  0  0  0  0  0  0  0  0  0  0  0
   -2.5957   -4.8840    2.3082 C   0  0  0  0  0  0  0  0  0  0  0  0
   -2.5229   -3.6605    1.6573 C   0  0  0  0  0  0  0  0  0  0  0  0
   -4.1474    1.8656    1.9906 C   0  0  0  0  0  0  0  0  0  0  0  0
   -3.2267    2.8931    1.8345 C   0  0  0  0  0  0  0  0  0  0  0  0
   -3.3591    3.7946    0.7915 C   0  0  0  0  0  0  0  0  0  0  0  0
   -4.4257    3.6947   -0.0851 C   0  0  0  0  0  0  0  0  0  0  0  0
   -5.3637    2.6896    0.0831 C   0  0  0  0  0  0  0  0  0  0  0  0
   -5.2255    1.7803    1.1145 C   0  0  0  0  0  0  0  0  0  0  0  0
    1.2200   -2.9470    0.3156 C   0  0  0  0  0  0  0  0  0  0  0  0
    1.5696   -4.1394    0.9643 C   0  0  0  0  0  0  0  0  0  0  0  0
    0.9711   -5.3318    0.5956 C   0  0  0  0  0  0  0  0  0  0  0  0
    0.0332   -5.3158   -0.4248 C   0  0  0  0  0  0  0  0  0  0  0  0
   -0.3075   -4.1329   -1.0635 C   0  0  0  0  0  0  0  0  0  0  0  0
    0.2824   -2.9310   -0.6928 C   0  0  0  0  0  0  0  0  0  0  0  0
    2.8304   -2.4638    1.9528 C   0  0  0  0  0  0  0  0  0  0  0  0
    2.5700   -3.8393    1.9791 C   0  0  0  0  0  0  0  0  0  0  0  0
    3.2440   -4.6572    2.8708 C   0  0  0  0  0  0  0  0  0  0  0  0
    4.1807   -4.0824    3.7155 C   0  0  0  0  0  0  0  0  0  0  0  0
    4.4445   -2.7221    3.6751 C   0  0  0  0  0  0  0  0  0  0  0  0
    3.7651   -1.8843    2.7937 C   0  0  0  0  0  0  0  0  0  0  0  0
    4.0286   -0.4297    2.7154 C   0  0  0  0  0  0  0  0  0  0  0  0
    3.1492    0.4783    3.2946 C   0  0  0  0  0  0  0  0  0  0  0  0
    3.3343    1.8384    3.1206 C   0  0  0  0  0  0  0  0  0  0  0  0
    4.4010    2.3036    2.3709 C   0  0  0  0  0  0  0  0  0  0  0  0
    5.3048    1.4064    1.8282 C   0  0  0  0  0  0  0  0  0  0  0  0
    5.1233    0.0466    2.0048 C   0  0  0  0  0  0  0  0  0  0  0  0
    4.8704    4.1806   -2.0325 C   0  0  0  0  0  0  0  0  0  0  0  0
   -2.8386   -1.0868    1.9054 C   0  0  1  0  0  0  0  0  0  0  0  0
    1.9703   -1.7754    0.9106 C   0  0  1  0  0  0  0  0  0  0  0  0
   -0.2370   -2.4269    2.7273 F   0  0  0  0  0  0  0  0  0  0  0  0
    0.5840    3.5337   -2.8627 H   0  0  0  0  0  0  0  0  0  0  0  0
   -3.4606    2.5260   -3.8574 H   0  0  0  0  0  0  0  0  0  0  0  0
   -2.5143    2.9594   -5.8872 H   0  0  0  0  0  0  0  0  0  0  0  0
   -2.5195    4.6350   -7.6791 H   0  0  0  0  0  0  0  0  0  0  0  0
   -1.4469    6.8294   -7.3328 H   0  0  0  0  0  0  0  0  0  0  0  0
   -0.3518    7.3301   -5.1766 H   0  0  0  0  0  0  0  0  0  0  0  0
   -0.3701    5.6640   -3.3702 H   0  0  0  0  0  0  0  0  0  0  0  0
    0.9597    5.5126   -0.1556 H   0  0  0  0  0  0  0  0  0  0  0  0
    6.4033    6.3703   -3.0786 H   0  0  0  0  0  0  0  0  0  0  0  0
    5.7491    8.7480   -2.8443 H   0  0  0  0  0  0  0  0  0  0  0  0
    3.6873    9.3597   -1.6650 H   0  0  0  0  0  0  0  0  0  0  0  0
    2.2358    7.6234   -0.6810 H   0  0  0  0  0  0  0  0  0  0  0  0
    7.0360    1.7184   -5.1798 H   0  0  0  0  0  0  0  0  0  0  0  0
    5.2161    1.8984   -6.8401 H   0  0  0  0  0  0  0  0  0  0  0  0
    3.1751    3.1594   -6.3260 H   0  0  0  0  0  0  0  0  0  0  0  0
    2.9011    4.2719   -4.1350 H   0  0  0  0  0  0  0  0  0  0  0  0
    8.5869    1.7847   -3.0773 H   0  0  0  0  0  0  0  0  0  0  0  0
    9.6496    2.1227   -0.8754 H   0  0  0  0  0  0  0  0  0  0  0  0
    8.5420    3.4629    0.8546 H   0  0  0  0  0  0  0  0  0  0  0  0
    6.3269    4.4848    0.4311 H   0  0  0  0  0  0  0  0  0  0  0  0
   -4.8224   -2.3203    0.5940 H   0  0  0  0  0  0  0  0  0  0  0  0
   -5.0616    0.1949   -2.8593 H   0  0  0  0  0  0  0  0  0  0  0  0
   -5.2474   -2.0638   -3.7370 H   0  0  0  0  0  0  0  0  0  0  0  0
   -6.8813   -3.6603   -4.6446 H   0  0  0  0  0  0  0  0  0  0  0  0
   -8.6151   -4.6258   -3.1775 H   0  0  0  0  0  0  0  0  0  0  0  0
   -8.7211   -3.9587   -0.8043 H   0  0  0  0  0  0  0  0  0  0  0  0
   -7.1006   -2.3500    0.1003 H   0  0  0  0  0  0  0  0  0  0  0  0
    5.6542    0.9898   -1.8600 H   0  0  0  0  0  0  0  0  0  0  0  0
    4.1580   -2.7026   -0.3291 H   0  0  0  0  0  0  0  0  0  0  0  0
    6.3433   -2.8090    0.1631 H   0  0  0  0  0  0  0  0  0  0  0  0
    8.4953   -3.8354   -0.4013 H   0  0  0  0  0  0  0  0  0  0  0  0
    9.6595   -3.2136   -2.4867 H   0  0  0  0  0  0  0  0  0  0  0  0
    8.6385   -1.5683   -4.0149 H   0  0  0  0  0  0  0  0  0  0  0  0
    6.4669   -0.5483   -3.4611 H   0  0  0  0  0  0  0  0  0  0  0  0
   -4.5140   -1.5767    6.0934 H   0  0  0  0  0  0  0  0  0  0  0  0
   -5.2371    0.7832    6.3145 H   0  0  0  0  0  0  0  0  0  0  0  0
   -5.0449    2.3132    4.4049 H   0  0  0  0  0  0  0  0  0  0  0  0
   -3.7966   -3.9027    5.3236 H   0  0  0  0  0  0  0  0  0  0  0  0
   -3.0767   -5.9302    4.1093 H   0  0  0  0  0  0  0  0  0  0  0  0
   -2.2941   -5.7797    1.7861 H   0  0  0  0  0  0  0  0  0  0  0  0
   -2.1640   -3.5980    0.6410 H   0  0  0  0  0  0  0  0  0  0  0  0
   -2.4014    2.9831    2.5262 H   0  0  0  0  0  0  0  0  0  0  0  0
   -2.6244    4.5753    0.6625 H   0  0  0  0  0  0  0  0  0  0  0  0
   -4.5249    4.3971   -0.8995 H   0  0  0  0  0  0  0  0  0  0  0  0
   -6.2022    2.6094   -0.5930 H   0  0  0  0  0  0  0  0  0  0  0  0
   -5.9516    0.9903    1.2440 H   0  0  0  0  0  0  0  0  0  0  0  0
    1.2251   -6.2546    1.0948 H   0  0  0  0  0  0  0  0  0  0  0  0
   -0.4451   -6.2367   -0.7254 H   0  0  0  0  0  0  0  0  0  0  0  0
   -1.0451   -4.1434   -1.8532 H   0  0  0  0  0  0  0  0  0  0  0  0
    0.0061   -2.0062   -1.1815 H   0  0  0  0  0  0  0  0  0  0  0  0
    3.0473   -5.7179    2.9064 H   0  0  0  0  0  0  0  0  0  0  0  0
    4.7184   -4.7039    4.4169 H   0  0  0  0  0  0  0  0  0  0  0  0
    5.1827   -2.2953    4.3386 H   0  0  0  0  0  0  0  0  0  0  0  0
    2.3189    0.1129    3.8824 H   0  0  0  0  0  0  0  0  0  0  0  0
    2.6363    2.5360    3.5599 H   0  0  0  0  0  0  0  0  0  0  0  0
    4.5274    3.3644    2.2141 H   0  0  0  0  0  0  0  0  0  0  0  0
    6.1466    1.7634    1.2536 H   0  0  0  0  0  0  0  0  0  0  0  0
    5.8247   -0.6520    1.5725 H   0  0  0  0  0  0  0  0  0  0  0  0
  4  5  2  0
  5  6  1  0
  6  7  2  0
  7  8  1  0
  8  9  2  0
  9  4  1  0
 10 11  2  0
 11 12  1  0
 12 13  2  0
 13 14  1  0
 14 15  2  0
 15 10  1  0
 16 17  2  0
 17 18  1  0
 18 19  2  0
 19 20  1  0
 20 21  2  0
 21 16  1  0
 22 23  2  0
 23 24  1  0
 24 25  2  0
 25 26  1  0
 26 27  2  0
 27 22  1  0
 28 29  1  0
 29 30  2  0
 30 31  1  0
 31 32  2  0
 32 33  1  0
 33 28  2  0
 34 35  2  0
 35 36  1  0
 36 37  2  0
 37 38  1  0
 38 39  2  0
 39 34  1  0
 40 41  2  0
 41 42  1  0
 42 43  2  0
 43 44  1  0
 44 45  2  0
 45 40  1  0
 46 47  2  0
 47 48  1  0
 48 49  2  0
 49 50  1  0
 50 51  2  0
 51 46  1  0
 52 53  2  0
 53 54  1  0
 54 55  2  0
 55 56  1  0
 56 57  2  0
 57 52  1  0
 58 59  2  0
 59 60  1  0
 60 61  2  0
 61 62  1  0
 62 63  2  0
 63 58  1  0
 64 65  2  0
 65 66  1  0
 66 67  2  0
 67 68  1  0
 68 69  2  0
 69 64  1  0
 70 71  1  0
 71 72  2  0
 72 73  1  0
 73 74  2  0
 74 75  1  0
 75 70  2  0
 76 77  2  0
 77 78  1  0
 78 79  2  0
 79 80  1  0
 80 81  2  0
 81 76  1  0
 82 83  2  0
 83 84  1  0
 84 85  2  0
 85 86  1  0
 86 87  2  0
 87 82  1  0
 88 89  1  0
 89 90  2  0
 90 91  1  0
 91 92  2  0
 92 93  1  0
 93 88  2  0
 94 95  2  0
 95 96  1  0
 96 97  2  0
 97 98  1  0
 98 99  2  0
 99 94  1  0
100101  2  0
101102  1  0
102103  2  0
103104  1  0
104105  2  0
105100  1  0
  4 10  1  0
  6  3  1  0
  7  1  1  0
  8 40  1  0
  1 41  1  0
  1 69  1  0
 16 22  1  0
 17106  1  0
 23106  1  0
 18 52  1  0
 19  2  1  0
 20  3  1  0
  2 57  1  0
  2 65  1  0
106 28  1  0
106 34  1  0
 29 35  1  0
  3 64  1  0
 67109  1  0
107 42  1  6
 44 46  1  0
108 56  1  6
 54 58  1  0
107 68  1  0
107 70  1  0
107 76  1  0
 71 77  1  0
 75 82  1  0
108 66  1  0
108 88  1  0
108 94  1  0
 89 95  1  0
 99100  1  0
  5110  1  0
  9111  1  0
 11112  1  0
 12113  1  0
 13114  1  0
 14115  1  0
 15116  1  0
 21117  1  0
 24118  1  0
 25119  1  0
 26120  1  0
 27121  1  0
 30122  1  0
 31123  1  0
 32124  1  0
 33125  1  0
 36126  1  0
 37127  1  0
 38128  1  0
 39129  1  0
 43130  1  0
 45131  1  0
 47132  1  0
 48133  1  0
 49134  1  0
 50135  1  0
 51136  1  0
 53137  1  0
 55138  1  0
 59139  1  0
 60140  1  0
 61141  1  0
 62142  1  0
 63143  1  0
 72144  1  0
 73145  1  0
 74146  1  0
 78147  1  0
 79148  1  0
 80149  1  0
 81150  1  0
 83151  1  0
 84152  1  0
 85153  1  0
 86154  1  0
 87155  1  0
 90156  1  0
 91157  1  0
 92158  1  0
 93159  1  0
 96160  1  0
 97161  1  0
 98162  1  0
101163  1  0
102164  1  0
103165  1  0
104166  1  0
105167  1  0
M  END
$$$$
