GDG1476 blind candidate attempt 0001
     RDKit          3D

167193  0  0  0  0  0  0  0  0999 V2000
   -1.4277    1.0775    0.0000 N   0  0  0  0  0  0  0  0  09001  0  0
    1.4203    1.0775    0.0000 N   0  0  0  0  0  0  0  0  09002  0  0
   -0.0037    1.8997    0.0000 B   0  0  0  0  0  0  0  0  09003  0  0
   -1.5047    3.5400   -3.2308 C   0  0  0  0  0  0  0  0  0  0  0  0
   -0.7240    3.8443   -2.0835 C   0  0  0  0  0  0  0  0  0  0  0  0
   -0.8592    3.0926   -0.8597 C   0  0  0  0  0  0  0  0  0  0  0  0
   -1.5601    2.0037   -0.9325 C   0  0  0  0  0  0  0  0  0  0  0  0
   -2.2800    1.6240   -2.0513 C   0  0  0  0  0  0  0  0  0  0  0  0
   -2.3263    2.3966   -3.2029 C   0  0  0  0  0  0  0  0  0  0  0  0
   -1.4203    4.3845   -4.4482 C   0  0  0  0  0  0  0  0  0  0  0  0
   -1.4004    3.7976   -5.7277 C   0  0  0  0  0  0  0  0  0  0  0  0
   -1.3108    4.5966   -6.8717 C   0  0  0  0  0  0  0  0  0  0  0  0
   -1.2412    5.9864   -6.7524 C   0  0  0  0  0  0  0  0  0  0  0  0
   -1.2616    6.5804   -5.4885 C   0  0  0  0  0  0  0  0  0  0  0  0
   -1.3504    5.7863   -4.3412 C   0  0  0  0  0  0  0  0  0  0  0  0
    2.8095    4.7504   -0.6900 C   0  0  0  0  0  0  0  0  0  0  0  0
    3.6002    3.6686   -1.1205 C   0  0  0  0  0  0  0  0  0  0  0  0
    3.0674    2.3739   -0.9591 C   0  0  0  0  0  0  0  0  0  0  0  0
    1.8176    2.2555   -0.4103 C   0  0  0  0  0  0  0  0  0  0  0  0
    1.0341    3.2285   -0.0957 C   0  0  0  0  0  0  0  0  0  0  0  0
    1.5182    4.5630   -0.1340 C   0  0  0  0  0  0  0  0  0  0  0  0
    3.4803    5.9822   -1.0484 C   0  0  0  0  0  0  0  0  0  0  0  0
    4.6643    5.6704   -1.6926 C   0  0  0  0  0  0  0  0  0  0  0  0
    5.5044    6.6829   -2.1668 C   0  0  0  0  0  0  0  0  0  0  0  0
    5.1192    8.0205   -1.9801 C   0  0  0  0  0  0  0  0  0  0  0  0
    3.9091    8.3293   -1.3288 C   0  0  0  0  0  0  0  0  0  0  0  0
    3.0747    7.3033   -0.8577 C   0  0  0  0  0  0  0  0  0  0  0  0
    5.0607    3.6988   -3.1907 C   0  0  0  0  0  0  0  0  0  0  0  0
    6.3248    3.1587   -3.3545 C   0  0  0  0  0  0  0  0  0  0  0  0
    6.7408    2.6288   -4.5757 C   0  0  0  0  0  0  0  0  0  0  0  0
    5.8457    2.6707   -5.6570 C   0  0  0  0  0  0  0  0  0  0  0  0
    4.5616    3.2297   -5.4992 C   0  0  0  0  0  0  0  0  0  0  0  0
    4.1602    3.7494   -4.2577 C   0  0  0  0  0  0  0  0  0  0  0  0
    6.1573    3.7509   -1.1353 C   0  0  0  0  0  0  0  0  0  0  0  0
    7.0138    3.2033   -2.0767 C   0  0  0  0  0  0  0  0  0  0  0  0
    8.2820    2.7383   -1.7294 C   0  0  0  0  0  0  0  0  0  0  0  0
    8.6951    2.8726   -0.3944 C   0  0  0  0  0  0  0  0  0  0  0  0
    7.8414    3.4597    0.5604 C   0  0  0  0  0  0  0  0  0  0  0  0
    6.5599    3.9026    0.1929 C   0  0  0  0  0  0  0  0  0  0  0  0
   -2.8329    0.4325   -1.7309 C   0  0  0  0  0  0  0  0  0  0  0  0
   -2.3746    0.1621   -0.4589 C   0  0  0  0  0  0  0  0  0  0  0  0
   -3.1037   -0.7422    0.3531 C   0  0  0  0  0  0  0  0  0  0  0  0
   -4.1667   -1.4649   -0.2387 C   0  0  0  0  0  0  0  0  0  0  0  0
   -4.5291   -1.2608   -1.5923 C   0  0  0  0  0  0  0  0  0  0  0  0
   -3.8638   -0.2718   -2.3424 C   0  0  0  0  0  0  0  0  0  0  0  0
   -5.6540   -2.0182   -2.1941 C   0  0  0  0  0  0  0  0  0  0  0  0
   -5.5652   -2.4912   -3.5166 C   0  0  0  0  0  0  0  0  0  0  0  0
   -6.6238   -3.2058   -4.0854 C   0  0  0  0  0  0  0  0  0  0  0  0
   -7.7812   -3.4527   -3.3439 C   0  0  0  0  0  0  0  0  0  0  0  0
   -7.8835   -2.9838   -2.0323 C   0  0  0  0  0  0  0  0  0  0  0  0
   -6.8277   -2.2693   -1.4581 C   0  0  0  0  0  0  0  0  0  0  0  0
    3.5186    1.0764   -0.9777 C   0  0  0  0  0  0  0  0  0  0  0  0
    4.7769    0.5486   -1.2367 C   0  0  0  0  0  0  0  0  0  0  0  0
    5.0643   -0.7673   -0.8198 C   0  0  0  0  0  0  0  0  0  0  0  0
    4.0986   -1.4810   -0.0661 C   0  0  0  0  0  0  0  0  0  0  0  0
    2.8548   -0.8942    0.2585 C   0  0  0  0  0  0  0  0  0  0  0  0
    2.5270    0.3326   -0.3415 C   0  0  0  0  0  0  0  0  0  0  0  0
    6.4039   -1.3507   -1.0945 C   0  0  0  0  0  0  0  0  0  0  0  0
    7.0567   -2.1457   -0.1322 C   0  0  0  0  0  0  0  0  0  0  0  0
    8.3291   -2.6657   -0.3878 C   0  0  0  0  0  0  0  0  0  0  0  0
    8.9655   -2.3982   -1.6016 C   0  0  0  0  0  0  0  0  0  0  0  0
    8.3300   -1.6117   -2.5643 C   0  0  0  0  0  0  0  0  0  0  0  0
    7.0571   -1.0908   -2.3158 C   0  0  0  0  0  0  0  0  0  0  0  0
   -0.1157    1.6598    1.5434 C   0  0  0  0  0  0  0  0  0  0  0  0
    0.9114    0.8274    1.3049 C   0  0  0  0  0  0  0  0  0  0  0  0
    0.8807   -0.4940    1.8060 C   0  0  0  0  0  0  0  0  0  0  0  0
   -0.3132   -0.8756    2.4566 C   0  0  0  0  0  0  0  0  0  0  0  0
   -1.4919   -0.1235    2.1408 C   0  0  0  0  0  0  0  0  0  0  0  0
   -1.2748    1.1036    1.4282 C   0  0  0  0  0  0  0  0  0  0  0  0
   -3.9298   -0.2042    2.7205 C   0  0  0  0  0  0  0  0  0  0  0  0
   -4.3444   -1.1234    3.6808 C   0  0  0  0  0  0  0  0  0  0  0  0
   -5.2886   -0.8130    4.6579 C   0  0  0  0  0  0  0  0  0  0  0  0
   -5.8305    0.4737    4.6768 C   0  0  0  0  0  0  0  0  0  0  0  0
   -5.4531    1.4133    3.7069 C   0  0  0  0  0  0  0  0  0  0  0  0
   -4.5129    1.0884    2.7072 C   0  0  0  0  0  0  0  0  0  0  0  0
   -2.8887   -2.2601    2.3344 C   0  0  0  0  0  0  0  0  0  0  0  0
   -3.7146   -2.3961    3.4290 C   0  0  0  0  0  0  0  0  0  0  0  0
   -3.9551   -3.6371    4.0240 C   0  0  0  0  0  0  0  0  0  0  0  0
   -3.3326   -4.7696    3.4782 C   0  0  0  0  0  0  0  0  0  0  0  0
   -2.5206   -4.6494    2.3362 C   0  0  0  0  0  0  0  0  0  0  0  0
   -2.3128   -3.3931    1.7478 C   0  0  0  0  0  0  0  0  0  0  0  0
   -4.2729    2.0865    1.6528 C   0  0  0  0  0  0  0  0  0  0  0  0
   -3.5170    3.2363    1.9309 C   0  0  0  0  0  0  0  0  0  0  0  0
   -3.4123    4.2559    0.9796 C   0  0  0  0  0  0  0  0  0  0  0  0
   -4.0840    4.1461   -0.2414 C   0  0  0  0  0  0  0  0  0  0  0  0
   -4.8636    3.0178   -0.5111 C   0  0  0  0  0  0  0  0  0  0  0  0
   -4.9649    1.9937    0.4355 C   0  0  0  0  0  0  0  0  0  0  0  0
    1.1962   -2.6807    0.5878 C   0  0  0  0  0  0  0  0  0  0  0  0
    1.4599   -3.8688    1.2437 C   0  0  0  0  0  0  0  0  0  0  0  0
    1.0003   -5.0923    0.7548 C   0  0  0  0  0  0  0  0  0  0  0  0
    0.2610   -5.0966   -0.4394 C   0  0  0  0  0  0  0  0  0  0  0  0
    0.0032   -3.8916   -1.1226 C   0  0  0  0  0  0  0  0  0  0  0  0
    0.4690   -2.6707   -0.6077 C   0  0  0  0  0  0  0  0  0  0  0  0
    2.5874   -2.2262    2.4014 C   0  0  0  0  0  0  0  0  0  0  0  0
    2.3174   -3.5854    2.3776 C   0  0  0  0  0  0  0  0  0  0  0  0
    2.8818   -4.4629    3.3025 C   0  0  0  0  0  0  0  0  0  0  0  0
    3.7451   -3.9395    4.2763 C   0  0  0  0  0  0  0  0  0  0  0  0
    4.0398   -2.5632    4.3035 C   0  0  0  0  0  0  0  0  0  0  0  0
    3.4606   -1.6892    3.3642 C   0  0  0  0  0  0  0  0  0  0  0  0
    3.8212   -0.2623    3.3561 C   0  0  0  0  0  0  0  0  0  0  0  0
    2.9455    0.6971    3.8861 C   0  0  0  0  0  0  0  0  0  0  0  0
    3.2526    2.0576    3.7860 C   0  0  0  0  0  0  0  0  0  0  0  0
    4.4438    2.4632    3.1771 C   0  0  0  0  0  0  0  0  0  0  0  0
    5.3343    1.5077    2.6798 C   0  0  0  0  0  0  0  0  0  0  0  0
    5.0268    0.1486    2.7706 C   0  0  0  0  0  0  0  0  0  0  0  0
    4.8646    4.1773   -1.7775 C   0  0  0  0  0  0  0  0  0  0  0  0
   -2.8252   -0.8172    1.8501 C   0  0  0  0  0  0  0  0  0  0  0  0
    1.8833   -1.5168    1.2604 C   0  0  0  0  0  0  0  0  0  0  0  0
   -0.3541   -2.0432    3.1440 F   0  0  0  0  0  0  0  0  0  0  0  0
   -0.0677    4.7006   -2.1229 H   0  0  0  0  0  0  0  0  0  0  0  0
   -2.9296    2.0989   -4.0508 H   0  0  0  0  0  0  0  0  0  0  0  0
   -1.4333    2.7215   -5.8432 H   0  0  0  0  0  0  0  0  0  0  0  0
   -1.2910    4.1371   -7.8515 H   0  0  0  0  0  0  0  0  0  0  0  0
   -1.1718    6.6030   -7.6392 H   0  0  0  0  0  0  0  0  0  0  0  0
   -1.2109    7.6578   -5.3975 H   0  0  0  0  0  0  0  0  0  0  0  0
   -1.3809    6.2690   -3.3723 H   0  0  0  0  0  0  0  0  0  0  0  0
    0.8771    5.3996    0.1092 H   0  0  0  0  0  0  0  0  0  0  0  0
    6.4326    6.4418   -2.6686 H   0  0  0  0  0  0  0  0  0  0  0  0
    5.7556    8.8184   -2.3402 H   0  0  0  0  0  0  0  0  0  0  0  0
    3.6200    9.3632   -1.1920 H   0  0  0  0  0  0  0  0  0  0  0  0
    2.1418    7.5357   -0.3613 H   0  0  0  0  0  0  0  0  0  0  0  0
    7.7234    2.1901   -4.6891 H   0  0  0  0  0  0  0  0  0  0  0  0
    6.1428    2.2679   -6.6165 H   0  0  0  0  0  0  0  0  0  0  0  0
    3.8790    3.2559   -6.3385 H   0  0  0  0  0  0  0  0  0  0  0  0
    3.1731    4.1749   -4.1297 H   0  0  0  0  0  0  0  0  0  0  0  0
    8.9321    2.2837   -2.4652 H   0  0  0  0  0  0  0  0  0  0  0  0
    9.6757    2.5243   -0.0974 H   0  0  0  0  0  0  0  0  0  0  0  0
    8.1723    3.5646    1.5854 H   0  0  0  0  0  0  0  0  0  0  0  0
    5.9001    4.3534    0.9226 H   0  0  0  0  0  0  0  0  0  0  0  0
   -4.7241   -2.1725    0.3615 H   0  0  0  0  0  0  0  0  0  0  0  0
   -4.2019    0.0024   -3.3339 H   0  0  0  0  0  0  0  0  0  0  0  0
   -4.6710   -2.3222   -4.1039 H   0  0  0  0  0  0  0  0  0  0  0  0
   -6.5457   -3.5698   -5.1019 H   0  0  0  0  0  0  0  0  0  0  0  0
   -8.5999   -4.0054   -3.7864 H   0  0  0  0  0  0  0  0  0  0  0  0
   -8.7836   -3.1700   -1.4609 H   0  0  0  0  0  0  0  0  0  0  0  0
   -6.9376   -1.8976   -0.4472 H   0  0  0  0  0  0  0  0  0  0  0  0
    5.5285    1.1436   -1.7121 H   0  0  0  0  0  0  0  0  0  0  0  0
    4.3271   -2.4715    0.3046 H   0  0  0  0  0  0  0  0  0  0  0  0
    6.5973   -2.3487    0.8262 H   0  0  0  0  0  0  0  0  0  0  0  0
    8.8253   -3.2711    0.3597 H   0  0  0  0  0  0  0  0  0  0  0  0
    9.9515   -2.8000   -1.7958 H   0  0  0  0  0  0  0  0  0  0  0  0
    8.8232   -1.4060   -3.5055 H   0  0  0  0  0  0  0  0  0  0  0  0
    6.5801   -0.4940   -3.0834 H   0  0  0  0  0  0  0  0  0  0  0  0
   -5.6020   -1.5480    5.3875 H   0  0  0  0  0  0  0  0  0  0  0  0
   -6.5630    0.7387    5.4282 H   0  0  0  0  0  0  0  0  0  0  0  0
   -5.9165    2.3926    3.7200 H   0  0  0  0  0  0  0  0  0  0  0  0
   -4.6225   -3.7334    4.8700 H   0  0  0  0  0  0  0  0  0  0  0  0
   -3.5004   -5.7429    3.9204 H   0  0  0  0  0  0  0  0  0  0  0  0
   -2.0649   -5.5296    1.9016 H   0  0  0  0  0  0  0  0  0  0  0  0
   -1.7223   -3.2995    0.8549 H   0  0  0  0  0  0  0  0  0  0  0  0
   -3.0121    3.3415    2.8832 H   0  0  0  0  0  0  0  0  0  0  0  0
   -2.8137    5.1324    1.1902 H   0  0  0  0  0  0  0  0  0  0  0  0
   -3.9991    4.9340   -0.9785 H   0  0  0  0  0  0  0  0  0  0  0  0
   -5.3876    2.9353   -1.4542 H   0  0  0  0  0  0  0  0  0  0  0  0
   -5.5935    1.1370    0.2268 H   0  0  0  0  0  0  0  0  0  0  0  0
    1.2205   -6.0182    1.2692 H   0  0  0  0  0  0  0  0  0  0  0  0
   -0.1046   -6.0322   -0.8419 H   0  0  0  0  0  0  0  0  0  0  0  0
   -0.5624   -3.9052   -2.0451 H   0  0  0  0  0  0  0  0  0  0  0  0
    0.2776   -1.7427   -1.1313 H   0  0  0  0  0  0  0  0  0  0  0  0
    2.6706   -5.5235    3.2673 H   0  0  0  0  0  0  0  0  0  0  0  0
    4.1993   -4.6006    5.0028 H   0  0  0  0  0  0  0  0  0  0  0  0
    4.7242   -2.1817    5.0512 H   0  0  0  0  0  0  0  0  0  0  0  0
    2.0154    0.3929    4.3503 H   0  0  0  0  0  0  0  0  0  0  0  0
    2.5647    2.7970    4.1748 H   0  0  0  0  0  0  0  0  0  0  0  0
    4.6795    3.5163    3.0975 H   0  0  0  0  0  0  0  0  0  0  0  0
    6.2619    1.8166    2.2211 H   0  0  0  0  0  0  0  0  0  0  0  0
    5.7164   -0.5811    2.3666 H   0  0  0  0  0  0  0  0  0  0  0  0
  4  5  2  0
  5  6  1  0
  6  7  2  0
  7  8  1  0
  8  9  2  0
  9  4  1  0
 10 11  2  0
 11 12  1  0
 12 13  2  0
 13 14  1  0
 14 15  2  0
 15 10  1  0
 16 17  2  0
 17 18  1  0
 18 19  2  0
 19 20  1  0
 20 21  2  0
 21 16  1  0
 22 23  2  0
 23 24  1  0
 24 25  2  0
 25 26  1  0
 26 27  2  0
 27 22  1  0
 28 29  1  0
 29 30  2  0
 30 31  1  0
 31 32  2  0
 32 33  1  0
 33 28  2  0
 34 35  2  0
 35 36  1  0
 36 37  2  0
 37 38  1  0
 38 39  2  0
 39 34  1  0
 40 41  2  0
 41 42  1  0
 42 43  2  0
 43 44  1  0
 44 45  2  0
 45 40  1  0
 46 47  2  0
 47 48  1  0
 48 49  2  0
 49 50  1  0
 50 51  2  0
 51 46  1  0
 52 53  2  0
 53 54  1  0
 54 55  2  0
 55 56  1  0
 56 57  2  0
 57 52  1  0
 58 59  2  0
 59 60  1  0
 60 61  2  0
 61 62  1  0
 62 63  2  0
 63 58  1  0
 64 65  2  0
 65 66  1  0
 66 67  2  0
 67 68  1  0
 68 69  2  0
 69 64  1  0
 70 71  1  0
 71 72  2  0
 72 73  1  0
 73 74  2  0
 74 75  1  0
 75 70  2  0
 76 77  2  0
 77 78  1  0
 78 79  2  0
 79 80  1  0
 80 81  2  0
 81 76  1  0
 82 83  2  0
 83 84  1  0
 84 85  2  0
 85 86  1  0
 86 87  2  0
 87 82  1  0
 88 89  1  0
 89 90  2  0
 90 91  1  0
 91 92  2  0
 92 93  1  0
 93 88  2  0
 94 95  2  0
 95 96  1  0
 96 97  2  0
 97 98  1  0
 98 99  2  0
 99 94  1  0
100101  2  0
101102  1  0
102103  2  0
103104  1  0
104105  2  0
105100  1  0
  4 10  1  0
  6  3  1  0
  7  1  1  0
  8 40  1  0
  1 41  1  0
  1 69  1  0
 16 22  1  0
 17106  1  0
 23106  1  0
 18 52  1  0
 19  2  1  0
 20  3  1  0
  2 57  1  0
  2 65  1  0
106 28  1  0
106 34  1  0
 29 35  1  0
  3 64  1  0
 67109  1  0
 42107  1  0
 44 46  1  0
 56108  1  0
 54 58  1  0
107 68  1  0
107 70  1  0
107 76  1  0
 71 77  1  0
 75 82  1  0
108 66  1  0
108 88  1  0
108 94  1  0
 89 95  1  0
 99100  1  0
  5110  1  0
  9111  1  0
 11112  1  0
 12113  1  0
 13114  1  0
 14115  1  0
 15116  1  0
 21117  1  0
 24118  1  0
 25119  1  0
 26120  1  0
 27121  1  0
 30122  1  0
 31123  1  0
 32124  1  0
 33125  1  0
 36126  1  0
 37127  1  0
 38128  1  0
 39129  1  0
 43130  1  0
 45131  1  0
 47132  1  0
 48133  1  0
 49134  1  0
 50135  1  0
 51136  1  0
 53137  1  0
 55138  1  0
 59139  1  0
 60140  1  0
 61141  1  0
 62142  1  0
 63143  1  0
 72144  1  0
 73145  1  0
 74146  1  0
 78147  1  0
 79148  1  0
 80149  1  0
 81150  1  0
 83151  1  0
 84152  1  0
 85153  1  0
 86154  1  0
 87155  1  0
 90156  1  0
 91157  1  0
 92158  1  0
 93159  1  0
 96160  1  0
 97161  1  0
 98162  1  0
101163  1  0
102164  1  0
103165  1  0
104166  1  0
105167  1  0
M  END
$$$$
